@<TRIPOS>MOLECULE
*****
 33 36 0 0 0
SMALL
GASTEIGER

@<TRIPOS>ATOM
      1 C         142.5069  140.2908  166.1928 C.ar    1  UNL1       -0.0019
      2 C         142.4625  139.6139  167.5306 C.ar    1  UNL1       -0.0003
      3 C         142.7078  140.4060  168.7805 C.ar    1  UNL1        0.0038
      4 C         142.9977  141.8752  168.6926 C.ar    1  UNL1        0.0712
      5 C         143.0421  142.5521  167.3547 C.ar    1  UNL1        0.0016
      6 C         142.7967  141.7599  166.1048 C.ar    1  UNL1        0.0040
      7 C         143.2430  142.6673  169.9424 C.3     1  UNL1        0.4186
      8 F         143.4884  143.4595  171.1923 F       1  UNL1       -0.1659
      9 F         144.7227  142.5480  169.7276 F       1  UNL1       -0.1659
     10 F         141.7633  142.7867  170.1573 F       1  UNL1       -0.1659
     11 C         140.8575  139.2336  164.4864 C.2     1  UNL1        0.0579
     12 C         142.2616  139.4986  164.9429 C.2     1  UNL1        0.0044
     13 C         138.6510  140.3904  159.6861 C.3     1  UNL1        0.1103
     14 C         138.8964  141.1826  160.9360 C.3     1  UNL1        0.0460
     15 C         139.5501  140.5329  162.1194 C.3     1  UNL1        0.0957
     16 N         139.9584  139.0911  162.0530 N.am    1  UNL1       -0.2759
     17 C         140.6121  138.4414  163.2365 C.2     1  UNL1        0.2492
     18 O         141.0205  136.9996  163.1701 O.2     1  UNL1       -0.2699
     19 C         139.7130  138.2989  160.8031 C.3     1  UNL1        0.0957
     20 C         139.0594  138.9486  159.6197 C.3     1  UNL1        0.0460
     21 C         135.6770  141.1738  155.3939 C.3     1  UNL1        0.0756
     22 C         136.6303  141.4002  156.5297 C.ar    1  UNL1        0.1609
     23 N         137.3524  142.6795  156.8331 N.ar    1  UNL1       -0.2076
     24 C         138.1972  142.4569  158.0524 C.ar    1  UNL1        0.1968
     25 N         137.9973  141.0401  158.5026 N.ar    1  UNL1       -0.2323
     26 N         137.0289  140.3870  157.5615 N.ar    1  UNL1       -0.1531
     27 C         142.8412  142.4368  164.7670 C.3     1  UNL1        0.1776
     28 N         141.5983  143.0534  164.1968 N.ar    1  UNL1       -0.1467
     29 N         141.4894  143.7587  162.8774 N.ar    1  UNL1       -0.0451
     30 N         140.0700  144.2141  162.7110 N.ar    1  UNL1       -0.1123
     31 C         139.3016  143.7903  163.9276 C.ar    1  UNL1        0.1838
     32 C         137.8444  144.0401  164.1813 C.3     1  UNL1        0.0776
     33 N         140.2461  143.0729  164.8458 N.ar    1  UNL1       -0.1339
@<TRIPOS>BOND
     1    21    22    1
     2    22    23   ar
     3    23    24   ar
     4    24    25   ar
     5    25    13    1
     6    13    14    1
     7    14    15    1
     8    15    16    1
     9    16    17   am
    10    17    18    2
    11    17    11    1
    12    11    12    2
    13    12     1    1
    14     1     2   ar
    15     2     3   ar
    16     3     4   ar
    17     4     7    1
    18     7     8    1
    19     7     9    1
    20     7    10    1
    21     4     5   ar
    22     5     6   ar
    23     6    27    1
    24    27    28    1
    25    28    29   ar
    26    29    30   ar
    27    30    31   ar
    28    31    32    1
    29    31    33   ar
    30    16    19    1
    31    19    20    1
    32    25    26   ar
    33    26    22   ar
    34    20    13    1
    35     6     1   ar
    36    33    28   ar
@<TRIPOS>MOLECULE
*****
 33 36 0 0 0
SMALL
GASTEIGER

@<TRIPOS>ATOM
      1 C         139.8202  140.2926  166.1544 C.ar    1  UNL1       -0.0019
      2 C         139.2091  139.5621  167.3132 C.ar    1  UNL1       -0.0003
      3 C         139.3103  140.1322  168.6968 C.ar    1  UNL1        0.0038
      4 C         140.0227  141.4330  168.9218 C.ar    1  UNL1        0.0712
      5 C         140.6338  142.1636  167.7630 C.ar    1  UNL1        0.0016
      6 C         140.5325  141.5934  166.3793 C.ar    1  UNL1        0.0040
      7 C         140.1238  142.0032  170.3055 C.3     1  UNL1        0.4186
      8 F         140.2250  142.5734  171.6891 F       1  UNL1       -0.1659
      9 F         140.2610  140.6187  170.8660 F       1  UNL1       -0.1659
     10 F         139.9867  143.3878  169.7450 F       1  UNL1       -0.1659
     11 C         138.4155  139.7771  164.0304 C.2     1  UNL1        0.0579
     12 C         139.7191  139.7225  164.7707 C.2     1  UNL1        0.0044
     13 C         138.4493  141.9377  159.0726 C.3     1  UNL1        0.1103
     14 C         138.5505  142.5079  160.4563 C.3     1  UNL1        0.0460
     15 C         138.5055  141.5976  161.6476 C.3     1  UNL1        0.0957
     16 N         138.3593  140.1172  161.4553 N.am    1  UNL1       -0.2759
     17 C         138.3143  139.2069  162.6468 C.2     1  UNL1        0.2492
     18 O         138.1682  137.7265  162.4544 O.2     1  UNL1       -0.2699
     19 C         138.2581  139.5470  160.0716 C.3     1  UNL1        0.0957
     20 C         138.3031  140.4573  158.8803 C.3     1  UNL1        0.0460
     21 C         137.2097  144.3325  154.5328 C.3     1  UNL1        0.0756
     22 C         137.9245  143.9487  155.7945 C.ar    1  UNL1        0.1609
     23 N         139.2026  144.5486  156.3011 N.ar    1  UNL1       -0.2076
     24 C         139.5547  143.8683  157.5907 C.ar    1  UNL1        0.1968
     25 N         138.4943  142.8479  157.8811 N.ar    1  UNL1       -0.2323
     26 N         137.4868  142.8977  156.7710 N.ar    1  UNL1       -0.1531
     27 C         141.1437  142.3240  165.2205 C.3     1  UNL1        0.1776
     28 N         140.3363  143.3347  164.4611 N.ar    1  UNL1       -0.1467
     29 N         138.8785  143.6274  164.6590 N.ar    1  UNL1       -0.0451
     30 N         138.4861  144.7038  163.6908 N.ar    1  UNL1       -0.1123
     31 C         139.7015  145.0764  162.8945 C.ar    1  UNL1        0.1838
     32 C         139.7627  146.1131  161.8121 C.3     1  UNL1        0.0776
     33 N         140.8450  144.2303  163.3706 N.ar    1  UNL1       -0.1339
@<TRIPOS>BOND
     1    21    22    1
     2    22    23   ar
     3    23    24   ar
     4    24    25   ar
     5    25    13    1
     6    13    14    1
     7    14    15    1
     8    15    16    1
     9    16    17   am
    10    17    18    2
    11    17    11    1
    12    11    12    2
    13    12     1    1
    14     1     2   ar
    15     2     3   ar
    16     3     4   ar
    17     4     7    1
    18     7     8    1
    19     7     9    1
    20     7    10    1
    21     4     5   ar
    22     5     6   ar
    23     6    27    1
    24    27    28    1
    25    28    29   ar
    26    29    30   ar
    27    30    31   ar
    28    31    32    1
    29    31    33   ar
    30    16    19    1
    31    19    20    1
    32    25    26   ar
    33    26    22   ar
    34    20    13    1
    35     6     1   ar
    36    33    28   ar
@<TRIPOS>MOLECULE
*****
 33 36 0 0 0
SMALL
GASTEIGER

@<TRIPOS>ATOM
      1 C         139.7921  141.8642  165.8118 C.ar    1  UNL1       -0.0019
      2 C         140.3575  142.6505  166.9572 C.ar    1  UNL1       -0.0003
      3 C         140.3717  142.0615  168.3366 C.ar    1  UNL1        0.0038
      4 C         139.8206  140.6861  168.5706 C.ar    1  UNL1        0.0712
      5 C         139.2553  139.8998  167.4252 C.ar    1  UNL1        0.0016
      6 C         139.2410  140.4889  166.0457 C.ar    1  UNL1        0.0040
      7 C         139.8349  140.0971  169.9501 C.3     1  UNL1        0.4186
      8 F         139.8491  139.5081  171.3295 F       1  UNL1       -0.1659
      9 F         141.2217  139.5769  169.7136 F       1  UNL1       -0.1659
     10 F         138.4480  140.6174  170.1865 F       1  UNL1       -0.1659
     11 C         140.6290  143.6478  164.1180 C.2     1  UNL1        0.0579
     12 C         139.7779  142.4532  164.4324 C.2     1  UNL1        0.0044
     13 C         143.2876  142.5408  159.5402 C.3     1  UNL1        0.1103
     14 C         143.3018  141.9518  160.9196 C.3     1  UNL1        0.0460
     15 C         142.4109  142.5171  161.9857 C.3     1  UNL1        0.0957
     16 N         141.5057  143.6714  161.6724 N.am    1  UNL1       -0.2759
     17 C         140.6148  144.2368  162.7386 C.2     1  UNL1        0.2492
     18 O         139.7096  145.3911  162.4253 O.2     1  UNL1       -0.2699
     19 C         141.4915  144.2604  160.2930 C.3     1  UNL1        0.0957
     20 C         142.3824  143.6951  159.2269 C.3     1  UNL1        0.0460
     21 C         147.1754  142.0053  156.0077 C.3     1  UNL1        0.0756
     22 C         145.9656  141.7293  156.8503 C.ar    1  UNL1        0.1609
     23 N         145.1334  140.4817  156.8165 N.ar    1  UNL1       -0.2076
     24 C         144.0290  140.6339  157.8200 C.ar    1  UNL1        0.1968
     25 N         144.1785  141.9755  158.4740 N.ar    1  UNL1       -0.2323
     26 N         145.3754  142.6525  157.8747 N.ar    1  UNL1       -0.1531
     27 C         138.6757  139.7026  164.9002 C.3     1  UNL1        0.1776
     28 N         139.5947  138.9764  163.9631 N.ar    1  UNL1       -0.1467
     29 N         139.1945  137.9135  162.9831 N.ar    1  UNL1       -0.0451
     30 N         140.4276  137.4658  162.2557 N.ar    1  UNL1       -0.1123
     31 C         141.5898  138.2520  162.7861 C.ar    1  UNL1        0.1838
     32 C         143.0163  138.1265  162.3397 C.3     1  UNL1        0.0776
     33 N         141.0750  139.1855  163.8413 N.ar    1  UNL1       -0.1339
@<TRIPOS>BOND
     1    21    22    1
     2    22    23   ar
     3    23    24   ar
     4    24    25   ar
     5    25    13    1
     6    13    14    1
     7    14    15    1
     8    15    16    1
     9    16    17   am
    10    17    18    2
    11    17    11    1
    12    11    12    2
    13    12     1    1
    14     1     2   ar
    15     2     3   ar
    16     3     4   ar
    17     4     7    1
    18     7     8    1
    19     7     9    1
    20     7    10    1
    21     4     5   ar
    22     5     6   ar
    23     6    27    1
    24    27    28    1
    25    28    29   ar
    26    29    30   ar
    27    30    31   ar
    28    31    32    1
    29    31    33   ar
    30    16    19    1
    31    19    20    1
    32    25    26   ar
    33    26    22   ar
    34    20    13    1
    35     6     1   ar
    36    33    28   ar
@<TRIPOS>MOLECULE
*****
 33 36 0 0 0
SMALL
GASTEIGER

@<TRIPOS>ATOM
      1 C         142.3092  141.1772  166.6731 C.ar    1  UNL1       -0.0019
      2 C         142.9617  142.1264  167.6340 C.ar    1  UNL1       -0.0003
      3 C         142.1793  142.6829  168.7863 C.ar    1  UNL1        0.0038
      4 C         140.7442  142.2904  168.9778 C.ar    1  UNL1        0.0712
      5 C         140.0917  141.3412  168.0169 C.ar    1  UNL1        0.0016
      6 C         140.8743  140.7846  166.8645 C.ar    1  UNL1        0.0040
      7 C         139.9617  142.8469  170.1301 C.3     1  UNL1        0.4186
      8 F         139.1793  143.4035  171.2824 F       1  UNL1       -0.1659
      9 F         139.1884  141.5651  170.2241 F       1  UNL1       -0.1659
     10 F         140.7351  144.1288  170.0361 F       1  UNL1       -0.1659
     11 C         143.2798  141.4382  164.2773 C.2     1  UNL1        0.0579
     12 C         143.0917  140.6206  165.5208 C.2     1  UNL1        0.0044
     13 C         141.9162  138.9695  159.6626 C.3     1  UNL1        0.1103
     14 C         141.1338  139.5261  160.8149 C.3     1  UNL1        0.0460
     15 C         141.8491  140.1634  161.9690 C.3     1  UNL1        0.0957
     16 N         143.3469  140.2442  161.9708 N.am    1  UNL1       -0.2759
     17 C         144.0623  140.8816  163.1249 C.2     1  UNL1        0.2492
     18 O         145.5601  140.9624  163.1267 O.2     1  UNL1       -0.2699
     19 C         144.1294  139.6876  160.8184 C.3     1  UNL1        0.0957
     20 C         143.4141  139.0503  159.6643 C.3     1  UNL1        0.0460
     21 C         140.9323  136.2091  155.2701 C.3     1  UNL1        0.0756
     22 C         140.7486  137.0633  156.4894 C.ar    1  UNL1        0.1609
     23 N         139.4515  137.6392  156.9753 N.ar    1  UNL1       -0.2076
     24 C         139.7311  138.4234  158.2230 C.ar    1  UNL1        0.1968
     25 N         141.2009  138.3321  158.5084 N.ar    1  UNL1       -0.2323
     26 N         141.8297  137.4915  157.4369 N.ar    1  UNL1       -0.1531
     27 C         140.2218  139.8354  165.9036 C.3     1  UNL1        0.1776
     28 N         139.3585  140.3642  164.7967 N.ar    1  UNL1       -0.1467
     29 N         138.3940  139.5644  163.9720 N.ar    1  UNL1       -0.0451
     30 N         137.7476  140.4915  162.9858 N.ar    1  UNL1       -0.1123
     31 C         138.3125  141.8643  163.2011 C.ar    1  UNL1        0.1838
     32 C         137.9461  143.0990  162.4321 C.3     1  UNL1        0.0776
     33 N         139.3080  141.7856  164.3203 N.ar    1  UNL1       -0.1339
@<TRIPOS>BOND
     1    21    22    1
     2    22    23   ar
     3    23    24   ar
     4    24    25   ar
     5    25    13    1
     6    13    14    1
     7    14    15    1
     8    15    16    1
     9    16    17   am
    10    17    18    2
    11    17    11    1
    12    11    12    2
    13    12     1    1
    14     1     2   ar
    15     2     3   ar
    16     3     4   ar
    17     4     7    1
    18     7     8    1
    19     7     9    1
    20     7    10    1
    21     4     5   ar
    22     5     6   ar
    23     6    27    1
    24    27    28    1
    25    28    29   ar
    26    29    30   ar
    27    30    31   ar
    28    31    32    1
    29    31    33   ar
    30    16    19    1
    31    19    20    1
    32    25    26   ar
    33    26    22   ar
    34    20    13    1
    35     6     1   ar
    36    33    28   ar
@<TRIPOS>MOLECULE
*****
 33 36 0 0 0
SMALL
GASTEIGER

@<TRIPOS>ATOM
      1 C         138.9649  138.6428  162.7256 C.ar    1  UNL1       -0.0019
      2 C         139.3518  137.5492  163.6765 C.ar    1  UNL1       -0.0003
      3 C         139.0956  137.7075  165.1459 C.ar    1  UNL1        0.0038
      4 C         138.4524  138.9594  165.6645 C.ar    1  UNL1        0.0712
      5 C         138.0655  140.0531  164.7136 C.ar    1  UNL1        0.0016
      6 C         138.3217  139.8947  163.2441 C.ar    1  UNL1        0.0040
      7 C         138.1962  139.1177  167.1339 C.3     1  UNL1        0.4186
      8 F         137.9400  139.2760  168.6034 F       1  UNL1       -0.1659
      9 F         139.2091  140.2226  167.1915 F       1  UNL1       -0.1659
     10 F         137.1833  138.0129  167.0763 F       1  UNL1       -0.1659
     11 C         140.4980  138.9963  160.6581 C.2     1  UNL1        0.0579
     12 C         139.2211  138.4845  161.2562 C.2     1  UNL1        0.0044
     13 C         144.3923  140.7186  157.3237 C.3     1  UNL1        0.1103
     14 C         144.1360  140.8769  158.7931 C.3     1  UNL1        0.0460
     15 C         142.9234  140.2500  159.4148 C.3     1  UNL1        0.0957
     16 N         141.9669  139.4649  158.5669 N.am    1  UNL1       -0.2759
     17 C         140.7542  138.8380  159.1886 C.2     1  UNL1        0.2492
     18 O         139.7978  138.0529  158.3408 O.2     1  UNL1       -0.2699
     19 C         142.2232  139.3066  157.0975 C.3     1  UNL1        0.0957
     20 C         143.4358  139.9335  156.4759 C.3     1  UNL1        0.0460
     21 C         148.3592  141.7644  153.9994 C.3     1  UNL1        0.0756
     22 C         147.4283  141.8262  155.1740 C.ar    1  UNL1        0.1609
     23 N         147.5139  142.7941  156.3168 N.ar    1  UNL1       -0.2076
     24 C         146.3870  142.4970  157.2611 C.ar    1  UNL1        0.1968
     25 N         145.6050  141.3455  156.7020 N.ar    1  UNL1       -0.2323
     26 N         146.2486  140.9309  155.4121 N.ar    1  UNL1       -0.1531
     27 C         137.9348  140.9884  162.2932 C.3     1  UNL1        0.1776
     28 N         138.4963  142.3683  162.4687 N.ar    1  UNL1       -0.1467
     29 N         137.8131  143.6517  162.0996 N.ar    1  UNL1       -0.0451
     30 N         138.7341  144.7836  162.4468 N.ar    1  UNL1       -0.1123
     31 C         139.9866  144.1997  163.0304 C.ar    1  UNL1        0.1838
     32 C         141.1770  144.9728  163.5153 C.3     1  UNL1        0.0776
     33 N         139.8396  142.7070  163.0439 N.ar    1  UNL1       -0.1339
@<TRIPOS>BOND
     1    21    22    1
     2    22    23   ar
     3    23    24   ar
     4    24    25   ar
     5    25    13    1
     6    13    14    1
     7    14    15    1
     8    15    16    1
     9    16    17   am
    10    17    18    2
    11    17    11    1
    12    11    12    2
    13    12     1    1
    14     1     2   ar
    15     2     3   ar
    16     3     4   ar
    17     4     7    1
    18     7     8    1
    19     7     9    1
    20     7    10    1
    21     4     5   ar
    22     5     6   ar
    23     6    27    1
    24    27    28    1
    25    28    29   ar
    26    29    30   ar
    27    30    31   ar
    28    31    32    1
    29    31    33   ar
    30    16    19    1
    31    19    20    1
    32    25    26   ar
    33    26    22   ar
    34    20    13    1
    35     6     1   ar
    36    33    28   ar
@<TRIPOS>MOLECULE
*****
 33 36 0 0 0
SMALL
GASTEIGER

@<TRIPOS>ATOM
      1 C         139.8096  141.7392  165.7254 C.ar    1  UNL1       -0.0019
      2 C         140.2898  142.6279  166.8343 C.ar    1  UNL1       -0.0003
      3 C         140.3236  142.1165  168.2440 C.ar    1  UNL1        0.0038
      4 C         139.8772  140.7163  168.5448 C.ar    1  UNL1        0.0712
      5 C         139.3970  139.8277  167.4359 C.ar    1  UNL1        0.0016
      6 C         139.3632  140.3392  166.0262 C.ar    1  UNL1        0.0040
      7 C         139.9110  140.2049  169.9545 C.3     1  UNL1        0.4186
      8 F         139.9448  139.6935  171.3642 F       1  UNL1       -0.1659
      9 F         138.6418  140.9461  170.2538 F       1  UNL1       -0.1659
     10 F         141.1802  139.4638  169.6552 F       1  UNL1       -0.1659
     11 C         138.4605  142.5209  163.6472 C.2     1  UNL1        0.0579
     12 C         139.7758  142.2506  164.3157 C.2     1  UNL1        0.0044
     13 C         138.9782  140.1845  158.7972 C.3     1  UNL1        0.1103
     14 C         139.0120  139.6731  160.2068 C.3     1  UNL1        0.0460
     15 C         138.8281  140.6224  161.3536 C.3     1  UNL1        0.0957
     16 N         138.6105  142.0830  161.0907 N.am    1  UNL1       -0.2759
     17 C         138.4267  143.0323  162.2375 C.2     1  UNL1        0.2492
     18 O         138.2090  144.4930  161.9746 O.2     1  UNL1       -0.2699
     19 C         138.5767  142.5944  159.6810 C.3     1  UNL1        0.0957
     20 C         138.7605  141.6452  158.5342 C.3     1  UNL1        0.0460
     21 C         138.5282  137.8693  154.0729 C.3     1  UNL1        0.0756
     22 C         138.9552  138.1711  155.4789 C.ar    1  UNL1        0.1609
     23 N         139.9347  137.3780  156.2923 N.ar    1  UNL1       -0.2076
     24 C         140.0625  138.0357  157.6343 C.ar    1  UNL1        0.1968
     25 N         139.1620  139.2353  157.6503 N.ar    1  UNL1       -0.2323
     26 N         138.4777  139.3189  156.3182 N.ar    1  UNL1       -0.1531
     27 C         138.8830  139.4505  164.9172 C.3     1  UNL1        0.1776
     28 N         139.8736  138.7510  164.0343 N.ar    1  UNL1       -0.1467
     29 N         139.6111  137.5216  163.2159 N.ar    1  UNL1       -0.0451
     30 N         140.8758  137.1688  162.4907 N.ar    1  UNL1       -0.1123
     31 C         141.9200  138.1802  162.8608 C.ar    1  UNL1        0.1838
     32 C         143.3351  138.2087  162.3642 C.3     1  UNL1        0.0776
     33 N         141.3005  139.1580  163.8149 N.ar    1  UNL1       -0.1339
@<TRIPOS>BOND
     1    21    22    1
     2    22    23   ar
     3    23    24   ar
     4    24    25   ar
     5    25    13    1
     6    13    14    1
     7    14    15    1
     8    15    16    1
     9    16    17   am
    10    17    18    2
    11    17    11    1
    12    11    12    2
    13    12     1    1
    14     1     2   ar
    15     2     3   ar
    16     3     4   ar
    17     4     7    1
    18     7     8    1
    19     7     9    1
    20     7    10    1
    21     4     5   ar
    22     5     6   ar
    23     6    27    1
    24    27    28    1
    25    28    29   ar
    26    29    30   ar
    27    30    31   ar
    28    31    32    1
    29    31    33   ar
    30    16    19    1
    31    19    20    1
    32    25    26   ar
    33    26    22   ar
    34    20    13    1
    35     6     1   ar
    36    33    28   ar
@<TRIPOS>MOLECULE
*****
 33 36 0 0 0
SMALL
GASTEIGER

@<TRIPOS>ATOM
      1 C         142.5332  142.0562  166.2972 C.ar    1  UNL1       -0.0019
      2 C         143.1941  142.1544  167.6402 C.ar    1  UNL1       -0.0003
      3 C         142.3827  142.5078  168.8512 C.ar    1  UNL1        0.0038
      4 C         140.9104  142.7630  168.7194 C.ar    1  UNL1        0.0712
      5 C         140.2496  142.6648  167.3764 C.ar    1  UNL1        0.0016
      6 C         141.0610  142.3114  166.1653 C.ar    1  UNL1        0.0040
      7 C         140.0991  143.1164  169.9305 C.3     1  UNL1        0.4186
      8 F         139.2877  143.4698  171.1415 F       1  UNL1       -0.1659
      9 F         139.4069  141.7878  169.8544 F       1  UNL1       -0.1659
     10 F         140.7912  144.4449  170.0065 F       1  UNL1       -0.1659
     11 C         143.8384  142.7850  164.1722 C.2     1  UNL1        0.0579
     12 C         143.3446  141.7028  165.0861 C.2     1  UNL1        0.0044
     13 C         143.1141  143.4368  158.8524 C.3     1  UNL1        0.1103
     14 C         142.3028  143.7902  160.0635 C.3     1  UNL1        0.0460
     15 C         142.8146  143.4551  161.4330 C.3     1  UNL1        0.0957
     16 N         144.1379  142.7667  161.5915 N.am    1  UNL1       -0.2759
     17 C         144.6498  142.4316  162.9611 C.2     1  UNL1        0.2492
     18 O         145.9730  141.7432  163.1196 O.2     1  UNL1       -0.2699
     19 C         144.9492  142.4133  160.3804 C.3     1  UNL1        0.0957
     20 C         144.4374  142.7483  159.0109 C.3     1  UNL1        0.0460
     21 C         140.8597  145.9949  154.8207 C.3     1  UNL1        0.0756
     22 C         141.5660  144.9476  155.6296 C.ar    1  UNL1        0.1609
     23 N         142.0632  143.6270  155.1208 N.ar    1  UNL1       -0.2076
     24 C         142.7036  142.9003  156.2661 C.ar    1  UNL1        0.1968
     25 N         142.6022  143.7718  157.4828 N.ar    1  UNL1       -0.2323
     26 N         141.8992  145.0371  157.0894 N.ar    1  UNL1       -0.1531
     27 C         140.4002  142.2132  164.8223 C.3     1  UNL1        0.1776
     28 N         139.7419  140.9324  164.4022 N.ar    1  UNL1       -0.1467
     29 N         139.6021  139.6966  165.2408 N.ar    1  UNL1       -0.0451
     30 N         138.8817  138.6630  164.4267 N.ar    1  UNL1       -0.1123
     31 C         138.5763  139.2601  163.0849 C.ar    1  UNL1        0.1838
     32 C         137.8643  138.5748  161.9564 C.3     1  UNL1        0.0776
     33 N         139.1080  140.6626  163.0698 N.ar    1  UNL1       -0.1339
@<TRIPOS>BOND
     1    21    22    1
     2    22    23   ar
     3    23    24   ar
     4    24    25   ar
     5    25    13    1
     6    13    14    1
     7    14    15    1
     8    15    16    1
     9    16    17   am
    10    17    18    2
    11    17    11    1
    12    11    12    2
    13    12     1    1
    14     1     2   ar
    15     2     3   ar
    16     3     4   ar
    17     4     7    1
    18     7     8    1
    19     7     9    1
    20     7    10    1
    21     4     5   ar
    22     5     6   ar
    23     6    27    1
    24    27    28    1
    25    28    29   ar
    26    29    30   ar
    27    30    31   ar
    28    31    32    1
    29    31    33   ar
    30    16    19    1
    31    19    20    1
    32    25    26   ar
    33    26    22   ar
    34    20    13    1
    35     6     1   ar
    36    33    28   ar
@<TRIPOS>MOLECULE
*****
 33 36 0 0 0
SMALL
GASTEIGER

@<TRIPOS>ATOM
      1 C         139.2453  144.1384  156.7892 C.ar    1  UNL1       -0.0019
      2 C         138.2405  144.5088  155.7388 C.ar    1  UNL1       -0.0003
      3 C         138.2296  145.8954  155.1671 C.ar    1  UNL1        0.0038
      4 C         139.2235  146.9119  155.6457 C.ar    1  UNL1        0.0712
      5 C         140.2283  146.5416  156.6961 C.ar    1  UNL1        0.0016
      6 C         140.2391  145.1548  157.2678 C.ar    1  UNL1        0.0040
      7 C         139.2126  148.2986  155.0740 C.3     1  UNL1        0.4186
      8 F         139.2017  149.6853  154.5023 F       1  UNL1       -0.1659
      9 F         139.8443  147.7843  153.8145 F       1  UNL1       -0.1659
     10 F         138.5808  148.8129  156.3335 F       1  UNL1       -0.1659
     11 C         138.3077  142.3881  158.4647 C.2     1  UNL1        0.0579
     12 C         139.2562  142.7517  157.3609 C.2     1  UNL1        0.0044
     13 C         138.7586  140.4009  163.4744 C.3     1  UNL1        0.1103
     14 C         138.7477  141.7876  162.9027 C.3     1  UNL1        0.0460
     15 C         138.6010  141.9877  161.4234 C.3     1  UNL1        0.0957
     16 N         138.4653  140.8012  160.5158 N.am    1  UNL1       -0.2759
     17 C         138.3187  141.0014  159.0364 C.2     1  UNL1        0.2492
     18 O         138.1829  139.8148  158.1289 O.2     1  UNL1       -0.2699
     19 C         138.4762  139.4145  161.0875 C.3     1  UNL1        0.0957
     20 C         138.6229  139.2143  162.5669 C.3     1  UNL1        0.0460
     21 C         140.2724  140.9999  168.4975 C.3     1  UNL1        0.0756
     22 C         139.6011  140.4760  167.2626 C.ar    1  UNL1        0.1609
     23 N         138.6607  139.3091  167.1979 N.ar    1  UNL1       -0.2076
     24 C         138.2307  139.1390  165.7710 C.ar    1  UNL1        0.1968
     25 N         138.9053  140.2007  164.9538 N.ar    1  UNL1       -0.2323
     26 N         139.7522  141.0270  165.8757 N.ar    1  UNL1       -0.1531
     27 C         141.2439  144.7845  158.3182 C.3     1  UNL1        0.1776
     28 N         140.9551  145.0628  159.7636 N.ar    1  UNL1       -0.1467
     29 N         139.7176  145.7144  160.3059 N.ar    1  UNL1       -0.0451
     30 N         139.8507  145.7928  161.7979 N.ar    1  UNL1       -0.1123
     31 C         141.1706  145.1897  162.1777 C.ar    1  UNL1        0.1838
     32 C         141.7128  145.0604  163.5704 C.3     1  UNL1        0.0776
     33 N         141.8531  144.7386  160.9205 N.ar    1  UNL1       -0.1339
@<TRIPOS>BOND
     1    21    22    1
     2    22    23   ar
     3    23    24   ar
     4    24    25   ar
     5    25    13    1
     6    13    14    1
     7    14    15    1
     8    15    16    1
     9    16    17   am
    10    17    18    2
    11    17    11    1
    12    11    12    2
    13    12     1    1
    14     1     2   ar
    15     2     3   ar
    16     3     4   ar
    17     4     7    1
    18     7     8    1
    19     7     9    1
    20     7    10    1
    21     4     5   ar
    22     5     6   ar
    23     6    27    1
    24    27    28    1
    25    28    29   ar
    26    29    30   ar
    27    30    31   ar
    28    31    32    1
    29    31    33   ar
    30    16    19    1
    31    19    20    1
    32    25    26   ar
    33    26    22   ar
    34    20    13    1
    35     6     1   ar
    36    33    28   ar
@<TRIPOS>MOLECULE
*****
 33 36 0 0 0
SMALL
GASTEIGER

@<TRIPOS>ATOM
      1 C         139.7461  140.9288  166.0271 C.ar    1  UNL1       -0.0019
      2 C         139.4152  139.8889  167.0563 C.ar    1  UNL1       -0.0003
      3 C         139.6458  140.1732  168.5109 C.ar    1  UNL1        0.0038
      4 C         140.2074  141.4975  168.9364 C.ar    1  UNL1        0.0712
      5 C         140.5383  142.5374  167.9073 C.ar    1  UNL1        0.0016
      6 C         140.3076  142.2530  166.4526 C.ar    1  UNL1        0.0040
      7 C         140.4380  141.7818  170.3910 C.3     1  UNL1        0.4186
      8 F         140.6687  142.0662  171.8456 F       1  UNL1       -0.1659
      9 F         141.7935  141.1460  170.3004 F       1  UNL1       -0.1659
     10 F         139.0825  142.4177  170.4817 F       1  UNL1       -0.1659
     11 C         138.4024  141.3343  163.8408 C.2     1  UNL1        0.0579
     12 C         139.5154  140.6445  164.5725 C.2     1  UNL1        0.0044
     13 C         139.8878  143.7922  159.2580 C.3     1  UNL1        0.1103
     14 C         140.1184  144.0765  160.7126 C.3     1  UNL1        0.0460
     15 C         139.5464  143.1624  161.7553 C.3     1  UNL1        0.0957
     16 N         138.7438  141.9640  161.3434 N.am    1  UNL1       -0.2759
     17 C         138.1718  141.0500  162.3862 C.2     1  UNL1        0.2492
     18 O         137.3691  139.8516  161.9743 O.2     1  UNL1       -0.2699
     19 C         138.5132  141.6797  159.8888 C.3     1  UNL1        0.0957
     20 C         139.0852  142.5938  158.8461 C.3     1  UNL1        0.0460
     21 C         140.3521  146.9107  155.0223 C.3     1  UNL1        0.0756
     22 C         140.6733  146.1396  156.2683 C.ar    1  UNL1        0.1609
     23 N         142.0069  146.0860  156.9528 N.ar    1  UNL1       -0.2076
     24 C         141.8750  145.2001  158.1561 C.ar    1  UNL1        0.1968
     25 N         140.4598  144.7062  158.2152 N.ar    1  UNL1       -0.2323
     26 N         139.7171  145.2869  157.0485 N.ar    1  UNL1       -0.1531
     27 C         140.6385  143.2929  165.4235 C.3     1  UNL1        0.1776
     28 N         141.9978  143.3147  164.7894 N.ar    1  UNL1       -0.1467
     29 N         142.5612  144.4224  163.9494 N.ar    1  UNL1       -0.0451
     30 N         143.9439  144.0250  163.5249 N.ar    1  UNL1       -0.1123
     31 C         144.2350  142.6716  164.1025 C.ar    1  UNL1        0.1838
     32 C         145.5058  141.8937  163.9290 C.3     1  UNL1        0.0776
     33 N         143.0323  142.2326  164.8840 N.ar    1  UNL1       -0.1339
@<TRIPOS>BOND
     1    21    22    1
     2    22    23   ar
     3    23    24   ar
     4    24    25   ar
     5    25    13    1
     6    13    14    1
     7    14    15    1
     8    15    16    1
     9    16    17   am
    10    17    18    2
    11    17    11    1
    12    11    12    2
    13    12     1    1
    14     1     2   ar
    15     2     3   ar
    16     3     4   ar
    17     4     7    1
    18     7     8    1
    19     7     9    1
    20     7    10    1
    21     4     5   ar
    22     5     6   ar
    23     6    27    1
    24    27    28    1
    25    28    29   ar
    26    29    30   ar
    27    30    31   ar
    28    31    32    1
    29    31    33   ar
    30    16    19    1
    31    19    20    1
    32    25    26   ar
    33    26    22   ar
    34    20    13    1
    35     6     1   ar
    36    33    28   ar
