@<TRIPOS>MOLECULE
*****
 20 22 0 0 0
SMALL
GASTEIGER

@<TRIPOS>ATOM
      1 N         141.2884  136.9755  163.2154 N.am    1  UNL1       -0.3126
      2 C         142.2472  138.1193  163.3659 C.2     1  UNL1        0.3084
      3 O         143.4948  138.1665  162.5344 O.2     1  UNL1       -0.2521
      4 N         141.9584  139.2158  164.3479 N.am    1  UNL1       -0.2222
      5 C         142.9808  140.3111  164.4197 C.ar    1  UNL1        0.0595
      6 C         144.1109  140.0694  163.4636 C.ar    1  UNL1        0.0153
      7 C         145.2430  141.0496  163.3773 C.ar    1  UNL1        0.0013
      8 C         145.2449  142.2717  164.2471 C.ar    1  UNL1        0.0001
      9 C         144.1147  142.5134  165.2033 C.ar    1  UNL1        0.0012
     10 C         142.9826  141.5331  165.2895 C.ar    1  UNL1        0.0141
     11 C         141.9626  141.9616  166.3024 C.2     1  UNL1        0.0013
     12 C         140.6888  141.2741  166.6957 C.2     1  UNL1        0.0013
     13 C         140.1204  139.9880  166.1730 C.ar    1  UNL1        0.0141
     14 C         138.8181  139.6542  166.8382 C.ar    1  UNL1        0.0012
     15 C         138.0807  138.4042  166.4585 C.ar    1  UNL1        0.0001
     16 C         138.6457  137.4883  165.4137 C.ar    1  UNL1        0.0013
     17 C         139.9481  137.8222  164.7485 C.ar    1  UNL1        0.0153
     18 C         140.6854  139.0720  165.1282 C.ar    1  UNL1        0.0595
     19 H         141.4780  136.2559  162.5709 H       1  UNL1        0.1465
     20 H         140.4696  136.9445  163.7612 H       1  UNL1        0.1465
@<TRIPOS>BOND
     1     1     2   am
     2     2     3    2
     3     2     4   am
     4     4     5    1
     5     5     6   ar
     6     6     7   ar
     7     7     8   ar
     8     8     9   ar
     9     9    10   ar
    10    10    11    1
    11    11    12    2
    12    12    13    1
    13    13    14   ar
    14    14    15   ar
    15    15    16   ar
    16    16    17   ar
    17    17    18   ar
    18    18     4    1
    19    10     5   ar
    20    18    13   ar
    21     1    19    1
    22     1    20    1
@<TRIPOS>MOLECULE
*****
 20 22 0 0 0
SMALL
GASTEIGER

@<TRIPOS>ATOM
      1 N         143.2645  138.0767  162.3543 N.am    1  UNL1       -0.3126
      2 C         142.0556  138.0410  163.2417 C.2     1  UNL1        0.3084
      3 O         141.0527  136.9347  163.0989 O.2     1  UNL1       -0.2521
      4 N         141.8497  139.1117  164.2720 N.am    1  UNL1       -0.2222
      5 C         140.6099  138.9821  165.1063 C.ar    1  UNL1        0.0595
      6 C         139.8139  137.7707  164.7206 C.ar    1  UNL1        0.0153
      7 C         138.5330  137.4563  165.4351 C.ar    1  UNL1        0.0013
      8 C         138.0481  138.3533  166.5352 C.ar    1  UNL1        0.0001
      9 C         138.8441  139.5648  166.9208 C.ar    1  UNL1        0.0012
     10 C         140.1250  139.8792  166.2064 C.ar    1  UNL1        0.0141
     11 C         140.7602  141.1273  166.7438 C.2     1  UNL1        0.0013
     12 C         142.0371  141.7866  166.3140 C.2     1  UNL1        0.0013
     13 C         142.9943  141.3606  165.2404 C.ar    1  UNL1        0.0141
     14 C         144.1538  142.3061  165.1333 C.ar    1  UNL1        0.0012
     15 C         145.2299  142.0612  164.1174 C.ar    1  UNL1        0.0001
     16 C         145.1465  140.8708  163.2087 C.ar    1  UNL1        0.0013
     17 C         143.9870  139.9253  163.3158 C.ar    1  UNL1        0.0153
     18 C         142.9109  140.1701  164.3316 C.ar    1  UNL1        0.0595
     19 H         143.3996  137.3740  161.6781 H       1  UNL1        0.1465
     20 H         143.9227  138.8027  162.4481 H       1  UNL1        0.1465
@<TRIPOS>BOND
     1     1     2   am
     2     2     3    2
     3     2     4   am
     4     4     5    1
     5     5     6   ar
     6     6     7   ar
     7     7     8   ar
     8     8     9   ar
     9     9    10   ar
    10    10    11    1
    11    11    12    2
    12    12    13    1
    13    13    14   ar
    14    14    15   ar
    15    15    16   ar
    16    16    17   ar
    17    17    18   ar
    18    18     4    1
    19    10     5   ar
    20    18    13   ar
    21     1    19    1
    22     1    20    1
@<TRIPOS>MOLECULE
*****
 20 22 0 0 0
SMALL
GASTEIGER

@<TRIPOS>ATOM
      1 N         141.6395  145.8067  163.5495 N.am    1  UNL1       -0.3126
      2 C         142.5859  144.6476  163.6546 C.2     1  UNL1        0.3084
      3 O         144.0528  144.8534  163.4181 O.2     1  UNL1       -0.2521
      4 N         142.0654  143.2829  163.9961 N.am    1  UNL1       -0.2222
      5 C         143.0949  142.1949  164.0759 C.ar    1  UNL1        0.0595
      6 C         144.4703  142.7197  163.7881 C.ar    1  UNL1        0.0153
      7 C         145.6482  141.7915  163.8163 C.ar    1  UNL1        0.0013
      8 C         145.4508  140.3385  164.1323 C.ar    1  UNL1        0.0001
      9 C         144.0754  139.8138  164.4202 C.ar    1  UNL1        0.0012
     10 C         142.8975  140.7419  164.3920 C.ar    1  UNL1        0.0141
     11 C         141.6218  140.0182  164.7063 C.2     1  UNL1        0.0013
     12 C         140.2284  140.5685  164.7822 C.2     1  UNL1        0.0013
     13 C         139.7667  141.9787  164.5624 C.ar    1  UNL1        0.0141
     14 C         138.2819  142.1024  164.7356 C.ar    1  UNL1        0.0012
     15 C         137.6145  143.4341  164.5589 C.ar    1  UNL1        0.0001
     16 C         138.4320  144.6421  164.2090 C.ar    1  UNL1        0.0013
     17 C         139.9168  144.5184  164.0359 C.ar    1  UNL1        0.0153
     18 C         140.5842  143.1867  164.2126 C.ar    1  UNL1        0.0595
     19 H         141.9811  146.7024  163.3253 H       1  UNL1        0.1465
     20 H         140.6767  145.6717  163.7047 H       1  UNL1        0.1465
@<TRIPOS>BOND
     1     1     2   am
     2     2     3    2
     3     2     4   am
     4     4     5    1
     5     5     6   ar
     6     6     7   ar
     7     7     8   ar
     8     8     9   ar
     9     9    10   ar
    10    10    11    1
    11    11    12    2
    12    12    13    1
    13    13    14   ar
    14    14    15   ar
    15    15    16   ar
    16    16    17   ar
    17    17    18   ar
    18    18     4    1
    19    10     5   ar
    20    18    13   ar
    21     1    19    1
    22     1    20    1
@<TRIPOS>MOLECULE
*****
 20 22 0 0 0
SMALL
GASTEIGER

@<TRIPOS>ATOM
      1 N         137.8589  139.0832  162.2353 N.am    1  UNL1       -0.3126
      2 C         137.9224  140.4218  162.9092 C.2     1  UNL1        0.3084
      3 O         136.9276  141.4875  162.5556 O.2     1  UNL1       -0.2521
      4 N         138.9807  140.6948  163.9366 N.am    1  UNL1       -0.2222
      5 C         138.9554  142.0639  164.5490 C.ar    1  UNL1        0.0595
      6 C         137.8415  142.8957  163.9858 C.ar    1  UNL1        0.0153
      7 C         137.6397  144.3026  164.4653 C.ar    1  UNL1        0.0013
      8 C         138.5518  144.8776  165.5082 C.ar    1  UNL1        0.0001
      9 C         139.6657  144.0457  166.0714 C.ar    1  UNL1        0.0012
     10 C         139.8675  142.6389  165.5918 C.ar    1  UNL1        0.0141
     11 C         141.0300  141.9868  166.2798 C.2     1  UNL1        0.0013
     12 C         141.5677  140.5988  166.0949 C.2     1  UNL1        0.0013
     13 C         141.0755  139.5199  165.1763 C.ar    1  UNL1        0.0141
     14 C         141.9012  138.2740  165.3024 C.ar    1  UNL1        0.0012
     15 C         141.5755  137.0707  164.4679 C.ar    1  UNL1        0.0001
     16 C         140.4242  137.1135  163.5075 C.ar    1  UNL1        0.0013
     17 C         139.5985  138.3594  163.3814 C.ar    1  UNL1        0.0153
     18 C         139.9241  139.5626  164.2157 C.ar    1  UNL1        0.0595
     19 H         137.1643  138.9041  161.5609 H       1  UNL1        0.1465
     20 H         138.5117  138.3838  162.4673 H       1  UNL1        0.1465
@<TRIPOS>BOND
     1     1     2   am
     2     2     3    2
     3     2     4   am
     4     4     5    1
     5     5     6   ar
     6     6     7   ar
     7     7     8   ar
     8     8     9   ar
     9     9    10   ar
    10    10    11    1
    11    11    12    2
    12    12    13    1
    13    13    14   ar
    14    14    15   ar
    15    15    16   ar
    16    16    17   ar
    17    17    18   ar
    18    18     4    1
    19    10     5   ar
    20    18    13   ar
    21     1    19    1
    22     1    20    1
@<TRIPOS>MOLECULE
*****
 20 22 0 0 0
SMALL
GASTEIGER

@<TRIPOS>ATOM
      1 N         138.8994  140.2141  170.2116 N.am    1  UNL1       -0.3126
      2 C         138.9678  139.7583  168.7841 C.2     1  UNL1        0.3084
      3 O         137.8782  138.8959  168.2192 O.2     1  UNL1       -0.2521
      4 N         140.1257  140.1650  167.9216 N.am    1  UNL1       -0.2222
      5 C         140.0969  139.6557  166.5110 C.ar    1  UNL1        0.0595
      6 C         138.8772  138.8212  166.2544 C.ar    1  UNL1        0.0153
      7 C         138.6551  138.2139  164.9010 C.ar    1  UNL1        0.0013
      8 C         139.6528  138.4409  163.8042 C.ar    1  UNL1        0.0001
      9 C         140.8725  139.2754  164.0607 C.ar    1  UNL1        0.0012
     10 C         141.0946  139.8828  165.4141 C.ar    1  UNL1        0.0141
     11 C         142.3675  140.6752  165.4570 C.2     1  UNL1        0.0013
     12 C         142.9571  141.4363  166.6073 C.2     1  UNL1        0.0013
     13 C         142.4193  141.5929  167.9988 C.ar    1  UNL1        0.0141
     14 C         143.3240  142.4400  168.8438 C.ar    1  UNL1        0.0012
     15 C         142.9686  142.7213  170.2737 C.ar    1  UNL1        0.0001
     16 C         141.7086  142.1555  170.8586 C.ar    1  UNL1        0.0013
     17 C         140.8039  141.3084  170.0136 C.ar    1  UNL1        0.0153
     18 C         141.1593  141.0271  168.5838 C.ar    1  UNL1        0.0595
     19 H         138.1395  139.9472  170.7776 H       1  UNL1        0.1465
     20 H         139.6145  140.7802  170.5823 H       1  UNL1        0.1465
@<TRIPOS>BOND
     1     1     2   am
     2     2     3    2
     3     2     4   am
     4     4     5    1
     5     5     6   ar
     6     6     7   ar
     7     7     8   ar
     8     8     9   ar
     9     9    10   ar
    10    10    11    1
    11    11    12    2
    12    12    13    1
    13    13    14   ar
    14    14    15   ar
    15    15    16   ar
    16    16    17   ar
    17    17    18   ar
    18    18     4    1
    19    10     5   ar
    20    18    13   ar
    21     1    19    1
    22     1    20    1
@<TRIPOS>MOLECULE
*****
 20 22 0 0 0
SMALL
GASTEIGER

@<TRIPOS>ATOM
      1 N         141.8029  138.7549  164.3066 N.am    1  UNL1       -0.3126
      2 C         140.8316  139.8970  164.3538 C.2     1  UNL1        0.3084
      3 O         139.3626  139.6270  164.4929 O.2     1  UNL1       -0.2521
      4 N         141.3293  141.3091  164.2621 N.am    1  UNL1       -0.2222
      5 C         140.2759  142.3754  164.3191 C.ar    1  UNL1        0.0595
      6 C         138.9046  141.7841  164.4603 C.ar    1  UNL1        0.0153
      7 C         137.7051  142.6815  164.5360 C.ar    1  UNL1        0.0013
      8 C         137.8768  144.1702  164.4705 C.ar    1  UNL1        0.0001
      9 C         139.2480  144.7615  164.3292 C.ar    1  UNL1        0.0012
     10 C         140.4476  143.8641  164.2535 C.ar    1  UNL1        0.0141
     11 C         141.7151  144.6541  164.1147 C.2     1  UNL1        0.0013
     12 C         143.1240  144.1507  164.0072 C.2     1  UNL1        0.0013
     13 C         143.6133  142.7327  164.0119 C.ar    1  UNL1        0.0141
     14 C         145.1062  142.6677  163.8821 C.ar    1  UNL1        0.0012
     15 C         145.8005  141.3381  163.8658 C.ar    1  UNL1        0.0001
     16 C         145.0019  140.0736  163.9792 C.ar    1  UNL1        0.0013
     17 C         143.5089  140.1385  164.1090 C.ar    1  UNL1        0.0153
     18 C         142.8146  141.4680  164.1254 C.ar    1  UNL1        0.0595
     19 H         141.4763  137.8281  164.3669 H       1  UNL1        0.1465
     20 H         142.7671  138.9321  164.2154 H       1  UNL1        0.1465
@<TRIPOS>BOND
     1     1     2   am
     2     2     3    2
     3     2     4   am
     4     4     5    1
     5     5     6   ar
     6     6     7   ar
     7     7     8   ar
     8     8     9   ar
     9     9    10   ar
    10    10    11    1
    11    11    12    2
    12    12    13    1
    13    13    14   ar
    14    14    15   ar
    15    15    16   ar
    16    16    17   ar
    17    17    18   ar
    18    18     4    1
    19    10     5   ar
    20    18    13   ar
    21     1    19    1
    22     1    20    1
@<TRIPOS>MOLECULE
*****
 20 22 0 0 0
SMALL
GASTEIGER

@<TRIPOS>ATOM
      1 N         140.1858  141.6250  167.7189 N.am    1  UNL1       -0.3126
      2 C         141.3394  141.4905  166.7696 C.2     1  UNL1        0.3084
      3 O         142.4326  142.5177  166.7673 O.2     1  UNL1       -0.2521
      4 N         141.3997  140.3288  165.8226 N.am    1  UNL1       -0.2222
      5 C         142.5947  140.2891  164.9167 C.ar    1  UNL1        0.0595
      6 C         143.5044  141.4570  165.1581 C.ar    1  UNL1        0.0153
      7 C         144.7617  141.6070  164.3539 C.ar    1  UNL1        0.0013
      8 C         145.1092  140.5891  163.3084 C.ar    1  UNL1        0.0001
      9 C         144.1994  139.4212  163.0670 C.ar    1  UNL1        0.0012
     10 C         142.9422  139.2712  163.8711 C.ar    1  UNL1        0.0141
     11 C         142.1806  138.0417  163.4733 C.2     1  UNL1        0.0013
     12 C         140.8834  137.5263  164.0227 C.2     1  UNL1        0.0013
     13 C         140.0275  138.1133  165.1057 C.ar    1  UNL1        0.0141
     14 C         138.8058  137.2784  165.3515 C.ar    1  UNL1        0.0012
     15 C         137.8138  137.6908  166.3985 C.ar    1  UNL1        0.0001
     16 C         138.0436  138.9380  167.1995 C.ar    1  UNL1        0.0013
     17 C         139.2653  139.7728  166.9536 C.ar    1  UNL1        0.0153
     18 C         140.2572  139.3605  165.9067 C.ar    1  UNL1        0.0595
     19 H         140.1462  142.3875  168.3405 H       1  UNL1        0.1465
     20 H         139.4683  140.9509  167.7205 H       1  UNL1        0.1465
@<TRIPOS>BOND
     1     1     2   am
     2     2     3    2
     3     2     4   am
     4     4     5    1
     5     5     6   ar
     6     6     7   ar
     7     7     8   ar
     8     8     9   ar
     9     9    10   ar
    10    10    11    1
    11    11    12    2
    12    12    13    1
    13    13    14   ar
    14    14    15   ar
    15    15    16   ar
    16    16    17   ar
    17    17    18   ar
    18    18     4    1
    19    10     5   ar
    20    18    13   ar
    21     1    19    1
    22     1    20    1
@<TRIPOS>MOLECULE
*****
 20 22 0 0 0
SMALL
GASTEIGER

@<TRIPOS>ATOM
      1 N         144.0715  138.8696  165.4348 N.am    1  UNL1       -0.3126
      2 C         142.9807  138.7201  164.4161 C.2     1  UNL1        0.3084
      3 O         143.3173  138.3209  163.0099 O.2     1  UNL1       -0.2521
      4 N         141.5532  138.9698  164.8036 N.am    1  UNL1       -0.2222
      5 C         140.5416  138.7926  163.7103 C.ar    1  UNL1        0.0595
      6 C         141.1933  138.3906  162.4205 C.ar    1  UNL1        0.0153
      7 C         140.3565  138.1615  161.1969 C.ar    1  UNL1        0.0013
      8 C         138.8679  138.3344  161.2631 C.ar    1  UNL1        0.0001
      9 C         138.2162  138.7364  162.5529 C.ar    1  UNL1        0.0012
     10 C         139.0531  138.9656  163.7765 C.ar    1  UNL1        0.0141
     11 C         138.2086  139.3583  164.9524 C.2     1  UNL1        0.0013
     12 C         138.6440  139.6751  166.3524 C.2     1  UNL1        0.0013
     13 C         140.0315  139.6774  166.9223 C.ar    1  UNL1        0.0141
     14 C         140.0269  140.0537  168.3744 C.ar    1  UNL1        0.0012
     15 C         141.3170  140.1161  169.1371 C.ar    1  UNL1        0.0001
     16 C         142.6117  139.8022  168.4478 C.ar    1  UNL1        0.0013
     17 C         142.6163  139.4259  166.9958 C.ar    1  UNL1        0.0153
     18 C         141.3263  139.3635  166.2331 C.ar    1  UNL1        0.0595
     19 H         145.0084  138.7057  165.1805 H       1  UNL1        0.1465
     20 H         143.8506  139.1316  166.3577 H       1  UNL1        0.1465
@<TRIPOS>BOND
     1     1     2   am
     2     2     3    2
     3     2     4   am
     4     4     5    1
     5     5     6   ar
     6     6     7   ar
     7     7     8   ar
     8     8     9   ar
     9     9    10   ar
    10    10    11    1
    11    11    12    2
    12    12    13    1
    13    13    14   ar
    14    14    15   ar
    15    15    16   ar
    16    16    17   ar
    17    17    18   ar
    18    18     4    1
    19    10     5   ar
    20    18    13   ar
    21     1    19    1
    22     1    20    1
@<TRIPOS>MOLECULE
*****
 20 22 0 0 0
SMALL
GASTEIGER

@<TRIPOS>ATOM
      1 N         143.2355  138.3492  162.8909 N.am    1  UNL1       -0.3126
      2 C         142.9159  138.7275  164.3068 C.2     1  UNL1        0.3084
      3 O         144.0177  138.8507  165.3172 O.2     1  UNL1       -0.2521
      4 N         141.4944  138.9827  164.7123 N.am    1  UNL1       -0.2222
      5 C         141.2846  139.3543  166.1503 C.ar    1  UNL1        0.0595
      6 C         142.5825  139.3930  166.9013 C.ar    1  UNL1        0.0153
      7 C         142.5950  139.7448  168.3594 C.ar    1  UNL1        0.0013
      8 C         141.3097  140.0581  169.0665 C.ar    1  UNL1        0.0001
      9 C         140.0119  140.0194  168.3154 C.ar    1  UNL1        0.0012
     10 C         139.9993  139.6675  166.8574 C.ar    1  UNL1        0.0141
     11 C         138.6065  139.6865  166.3010 C.2     1  UNL1        0.0013
     12 C         138.1548  139.3970  164.9002 C.2     1  UNL1        0.0013
     13 C         138.9846  139.0170  163.7098 C.ar    1  UNL1        0.0141
     14 C         138.1340  138.8155  162.4908 C.ar    1  UNL1        0.0012
     15 C         138.7698  138.4297  161.1881 C.ar    1  UNL1        0.0001
     16 C         140.2560  138.2453  161.1044 C.ar    1  UNL1        0.0013
     17 C         141.1066  138.4468  162.3235 C.ar    1  UNL1        0.0153
     18 C         140.4709  138.8326  163.6261 C.ar    1  UNL1        0.0595
     19 H         144.1684  138.1817  162.6247 H       1  UNL1        0.1465
     20 H         142.5123  138.2684  162.2277 H       1  UNL1        0.1465
@<TRIPOS>BOND
     1     1     2   am
     2     2     3    2
     3     2     4   am
     4     4     5    1
     5     5     6   ar
     6     6     7   ar
     7     7     8   ar
     8     8     9   ar
     9     9    10   ar
    10    10    11    1
    11    11    12    2
    12    12    13    1
    13    13    14   ar
    14    14    15   ar
    15    15    16   ar
    16    16    17   ar
    17    17    18   ar
    18    18     4    1
    19    10     5   ar
    20    18    13   ar
    21     1    19    1
    22     1    20    1
