@<TRIPOS>MOLECULE
*****
 32 35 0 0 0
SMALL
GASTEIGER

@<TRIPOS>ATOM
      1 C         139.5404  137.2791  164.6714 C.3     1  UNL1        0.0337
      2 C         139.7713  138.5767  163.9551 C.3     1  UNL1        0.1467
      3 N         139.4264  137.7811  162.7311 N.am    1  UNL1       -0.2806
      4 C         139.5061  138.6966  161.5456 C.2     1  UNL1        0.3106
      5 O         139.2387  138.3173  160.1193 O.2     1  UNL1       -0.2521
      6 N         139.9002  140.0579  162.0369 N.am    1  UNL1       -0.2050
      7 C         140.0641  139.9838  163.5261 C.2     1  UNL1        0.2527
      8 O         140.4526  141.1178  164.4278 O.2     1  UNL1       -0.2723
      9 H         139.1894  136.8258  162.7097 H       1  UNL1        0.1516
     10 C         140.0679  139.1009  165.3289 C.ar    1  UNL1        0.0021
     11 C         138.9520  139.5995  166.1985 C.ar    1  UNL1       -0.0010
     12 C         139.2486  140.1237  167.5722 C.ar    1  UNL1        0.0147
     13 C         140.6612  140.1494  168.0763 C.ar    1  UNL1        0.0571
     14 C         141.7770  139.6508  167.2068 C.ar    1  UNL1        0.0147
     15 C         141.4804  139.1266  165.8330 C.ar    1  UNL1       -0.0010
     16 N         140.9578  140.6737  169.4501 N.am    1  UNL1       -0.2212
     17 C         142.0797  141.5991  169.8174 C.3     1  UNL1        0.1489
     18 C         141.9999  141.8619  171.2921 C.3     1  UNL1        0.2320
     19 O         140.8286  141.0989  171.8361 O.3     1  UNL1       -0.4324
     20 C         140.1845  140.3646  170.6978 C.2     1  UNL1        0.4088
     21 O         138.9789  139.4770  170.7907 O.2     1  UNL1       -0.2258
     22 C         140.0961  141.2790  161.1880 C.3     1  UNL1        0.1714
     23 C         139.0955  142.3955  161.2380 C.2     1  UNL1        0.1957
     24 O         138.2838  142.7303  160.0219 O.2     1  UNL1       -0.2894
     25 C         138.9068  143.1772  162.5042 C.ar    1  UNL1        0.0640
     26 C         139.8665  144.2742  162.8586 C.ar    1  UNL1        0.0075
     27 C         139.6778  145.0558  164.1248 C.ar    1  UNL1        0.0299
     28 C         138.5293  144.7407  165.0367 C.ar    1  UNL1        0.1424
     29 F         138.3405  145.5224  166.3029 F       1  UNL1       -0.2041
     30 C         137.5695  143.6437  164.6823 C.ar    1  UNL1        0.0593
     31 C         137.7582  142.8620  163.4162 C.ar    1  UNL1        0.1451
     32 F         136.7985  141.7651  163.0618 F       1  UNL1       -0.2040
@<TRIPOS>BOND
     1     1     2    1
     2     2    10    1
     3    10    11   ar
     4    11    12   ar
     5    12    13   ar
     6    13    16    1
     7    16    17    1
     8    17    18    1
     9    18    19    1
    10    19    20    1
    11    20    21    2
    12    13    14   ar
    13    14    15   ar
    14     2     3    1
    15     3     4   am
    16     4     5    2
    17     4     6   am
    18     6    22    1
    19    22    23    1
    20    23    24    2
    21    23    25    1
    22    25    26   ar
    23    26    27   ar
    24    27    28   ar
    25    28    29    1
    26    28    30   ar
    27    30    31   ar
    28    31    32    1
    29     6     7   am
    30     7     8    2
    31     7     2    1
    32    15    10   ar
    33    31    25   ar
    34    20    16   am
    35     3     9    1
@<TRIPOS>MOLECULE
*****
 32 35 0 0 0
SMALL
GASTEIGER

@<TRIPOS>ATOM
      1 C         145.2669  139.5761  164.3543 C.3     1  UNL1        0.0337
      2 C         143.9289  139.7626  163.7025 C.3     1  UNL1        0.1467
      3 N         144.6236  139.2297  162.4846 N.am    1  UNL1       -0.2806
      4 C         143.6282  139.1901  161.3632 C.2     1  UNL1        0.3106
      5 O         143.8958  138.7239  159.9629 O.2     1  UNL1       -0.2521
      6 N         142.3183  139.6986  161.8880 N.am    1  UNL1       -0.2050
      7 C         142.5041  140.0524  163.3338 C.2     1  UNL1        0.2527
      8 O         141.4501  140.6000  164.2500 O.2     1  UNL1       -0.2723
      9 H         145.5673  138.9542  162.4307 H       1  UNL1        0.1516
     10 C         143.5139  140.2566  165.0567 C.ar    1  UNL1        0.0021
     11 C         143.6015  141.7184  165.3811 C.ar    1  UNL1       -0.0010
     12 C         143.1865  142.2123  166.7353 C.ar    1  UNL1        0.0147
     13 C         142.6839  141.2444  167.7650 C.ar    1  UNL1        0.0571
     14 C         142.5963  139.7825  167.4406 C.ar    1  UNL1        0.0147
     15 C         143.0113  139.2886  166.0865 C.ar    1  UNL1       -0.0010
     16 N         142.2689  141.7383  169.1193 N.am    1  UNL1       -0.2212
     17 C         140.9171  141.5635  169.7454 C.3     1  UNL1        0.1489
     18 C         140.9455  142.2109  171.0982 C.3     1  UNL1        0.2320
     19 O         142.3150  142.7860  171.3081 O.3     1  UNL1       -0.4324
     20 C         143.1328  142.4939  170.0851 C.2     1  UNL1        0.4088
     21 O         144.5634  142.8881  169.8663 O.2     1  UNL1       -0.2258
     22 C         141.0459  139.8302  161.1046 C.3     1  UNL1        0.1714
     23 C         139.8753  138.9474  161.4217 C.2     1  UNL1        0.1957
     24 O         139.2603  138.1020  160.3460 O.2     1  UNL1       -0.2894
     25 C         139.3197  138.9102  162.8144 C.ar    1  UNL1        0.0640
     26 C         139.5616  137.7141  163.6867 C.ar    1  UNL1        0.0075
     27 C         139.0060  137.6768  165.0795 C.ar    1  UNL1        0.0299
     28 C         138.2085  138.8356  165.6001 C.ar    1  UNL1        0.1424
     29 F         137.6528  138.7983  166.9929 F       1  UNL1       -0.2041
     30 C         137.9666  140.0317  164.7279 C.ar    1  UNL1        0.0593
     31 C         138.5221  140.0690  163.3351 C.ar    1  UNL1        0.1451
     32 F         138.2802  141.2652  162.4629 F       1  UNL1       -0.2040
@<TRIPOS>BOND
     1     1     2    1
     2     2    10    1
     3    10    11   ar
     4    11    12   ar
     5    12    13   ar
     6    13    16    1
     7    16    17    1
     8    17    18    1
     9    18    19    1
    10    19    20    1
    11    20    21    2
    12    13    14   ar
    13    14    15   ar
    14     2     3    1
    15     3     4   am
    16     4     5    2
    17     4     6   am
    18     6    22    1
    19    22    23    1
    20    23    24    2
    21    23    25    1
    22    25    26   ar
    23    26    27   ar
    24    27    28   ar
    25    28    29    1
    26    28    30   ar
    27    30    31   ar
    28    31    32    1
    29     6     7   am
    30     7     8    2
    31     7     2    1
    32    15    10   ar
    33    31    25   ar
    34    20    16   am
    35     3     9    1
@<TRIPOS>MOLECULE
*****
 32 35 0 0 0
SMALL
GASTEIGER

@<TRIPOS>ATOM
      1 C         145.1740  139.5770  164.3059 C.3     1  UNL1        0.0337
      2 C         143.7893  139.2556  163.8273 C.3     1  UNL1        0.1467
      3 N         144.4964  138.7777  162.5938 N.am    1  UNL1       -0.2806
      4 C         143.4613  138.2749  161.6316 C.2     1  UNL1        0.3106
      5 O         143.7265  137.7050  160.2697 O.2     1  UNL1       -0.2521
      6 N         142.1145  138.4421  162.2704 N.am    1  UNL1       -0.2050
      7 C         142.3172  139.0482  163.6274 C.2     1  UNL1        0.2527
      8 O         141.2373  139.3874  164.6118 O.2     1  UNL1       -0.2723
      9 H         145.4691  138.7915  162.4423 H       1  UNL1        0.1516
     10 C         143.3717  139.8008  165.1609 C.ar    1  UNL1        0.0021
     11 C         143.2071  138.8765  166.3308 C.ar    1  UNL1       -0.0010
     12 C         142.7896  139.4217  167.6643 C.ar    1  UNL1        0.0147
     13 C         142.5365  140.8911  167.8280 C.ar    1  UNL1        0.0571
     14 C         142.7011  141.8153  166.6581 C.ar    1  UNL1        0.0147
     15 C         143.1187  141.2702  165.3246 C.ar    1  UNL1       -0.0010
     16 N         142.1190  141.4362  169.1616 N.am    1  UNL1       -0.2212
     17 C         140.7972  141.2075  169.8330 C.3     1  UNL1        0.1489
     18 C         140.8111  141.9356  171.1443 C.3     1  UNL1        0.2320
     19 O         142.1415  142.6145  171.2834 O.3     1  UNL1       -0.4324
     20 C         142.9498  142.3058  170.0580 C.2     1  UNL1        0.4088
     21 O         144.3440  142.7830  169.7782 O.2     1  UNL1       -0.2258
     22 C         140.7964  138.0688  161.6594 C.3     1  UNL1        0.1714
     23 C         140.0407  139.0699  160.8368 C.2     1  UNL1        0.1957
     24 O         139.9414  138.8971  159.3501 O.2     1  UNL1       -0.2894
     25 C         139.3843  140.2438  161.5009 C.ar    1  UNL1        0.0640
     26 C         140.0612  141.5824  161.4979 C.ar    1  UNL1        0.0075
     27 C         139.4048  142.7562  162.1620 C.ar    1  UNL1        0.0299
     28 C         138.0715  142.5917  162.8291 C.ar    1  UNL1        0.1424
     29 F         137.4151  143.7656  163.4932 F       1  UNL1       -0.2041
     30 C         137.3945  141.2531  162.8321 C.ar    1  UNL1        0.0593
     31 C         138.0509  140.0792  162.1680 C.ar    1  UNL1        0.1451
     32 F         137.3739  138.7406  162.1710 F       1  UNL1       -0.2040
@<TRIPOS>BOND
     1     1     2    1
     2     2    10    1
     3    10    11   ar
     4    11    12   ar
     5    12    13   ar
     6    13    16    1
     7    16    17    1
     8    17    18    1
     9    18    19    1
    10    19    20    1
    11    20    21    2
    12    13    14   ar
    13    14    15   ar
    14     2     3    1
    15     3     4   am
    16     4     5    2
    17     4     6   am
    18     6    22    1
    19    22    23    1
    20    23    24    2
    21    23    25    1
    22    25    26   ar
    23    26    27   ar
    24    27    28   ar
    25    28    29    1
    26    28    30   ar
    27    30    31   ar
    28    31    32    1
    29     6     7   am
    30     7     8    2
    31     7     2    1
    32    15    10   ar
    33    31    25   ar
    34    20    16   am
    35     3     9    1
@<TRIPOS>MOLECULE
*****
 32 35 0 0 0
SMALL
GASTEIGER

@<TRIPOS>ATOM
      1 C         138.9016  137.7549  164.1870 C.3     1  UNL1        0.0337
      2 C         138.7425  139.1998  163.8171 C.3     1  UNL1        0.1467
      3 N         138.1933  138.6484  162.5348 N.am    1  UNL1       -0.2806
      4 C         137.8167  139.8047  161.6567 C.2     1  UNL1        0.3106
      5 O         137.2271  139.7113  160.2806 O.2     1  UNL1       -0.2521
      6 N         138.1330  141.0707  162.3962 N.am    1  UNL1       -0.2050
      7 C         138.7053  140.6969  163.7315 C.2     1  UNL1        0.2527
      8 O         139.1603  141.6525  164.7945 O.2     1  UNL1       -0.2723
      9 H         138.0970  137.6950  162.3092 H       1  UNL1        0.1516
     10 C         139.3250  139.4492  165.1768 C.ar    1  UNL1        0.0021
     11 C         140.7963  139.6983  165.3283 C.ar    1  UNL1       -0.0010
     12 C         141.3787  139.9476  166.6879 C.ar    1  UNL1        0.0147
     13 C         140.4897  139.9478  167.8961 C.ar    1  UNL1        0.0571
     14 C         139.0183  139.6987  167.7446 C.ar    1  UNL1        0.0147
     15 C         138.4360  139.4494  166.3850 C.ar    1  UNL1       -0.0010
     16 N         141.0722  140.1972  169.2557 N.am    1  UNL1       -0.2212
     17 C         142.4621  139.8462  169.6974 C.3     1  UNL1        0.1489
     18 C         142.6159  140.2733  171.1270 C.3     1  UNL1        0.2320
     19 O         141.3210  140.8883  171.5689 O.3     1  UNL1       -0.4324
     20 C         140.3670  140.8412  170.4124 C.2     1  UNL1        0.4088
     21 O         138.9556  141.3490  170.4126 O.2     1  UNL1       -0.2258
     22 C         137.9154  142.4657  161.8895 C.3     1  UNL1        0.1714
     23 C         139.0382  143.2059  161.2251 C.2     1  UNL1        0.1957
     24 O         138.9767  143.5000  159.7555 O.2     1  UNL1       -0.2894
     25 C         140.2225  143.6520  162.0303 C.ar    1  UNL1        0.0640
     26 C         141.3697  142.7133  162.2602 C.ar    1  UNL1        0.0075
     27 C         142.5540  143.1593  163.0654 C.ar    1  UNL1        0.0299
     28 C         142.5913  144.5441  163.6407 C.ar    1  UNL1        0.1424
     29 F         143.7756  144.9902  164.4459 F       1  UNL1       -0.2041
     30 C         141.4441  145.4828  163.4108 C.ar    1  UNL1        0.0593
     31 C         140.2598  145.0368  162.6056 C.ar    1  UNL1        0.1451
     32 F         139.1127  145.9755  162.3757 F       1  UNL1       -0.2040
@<TRIPOS>BOND
     1     1     2    1
     2     2    10    1
     3    10    11   ar
     4    11    12   ar
     5    12    13   ar
     6    13    16    1
     7    16    17    1
     8    17    18    1
     9    18    19    1
    10    19    20    1
    11    20    21    2
    12    13    14   ar
    13    14    15   ar
    14     2     3    1
    15     3     4   am
    16     4     5    2
    17     4     6   am
    18     6    22    1
    19    22    23    1
    20    23    24    2
    21    23    25    1
    22    25    26   ar
    23    26    27   ar
    24    27    28   ar
    25    28    29    1
    26    28    30   ar
    27    30    31   ar
    28    31    32    1
    29     6     7   am
    30     7     8    2
    31     7     2    1
    32    15    10   ar
    33    31    25   ar
    34    20    16   am
    35     3     9    1
@<TRIPOS>MOLECULE
*****
 32 35 0 0 0
SMALL
GASTEIGER

@<TRIPOS>ATOM
      1 C         137.4823  142.9163  164.1220 C.3     1  UNL1        0.0337
      2 C         138.7842  142.5660  163.4646 C.3     1  UNL1        0.1467
      3 N         138.0880  143.0039  162.2102 N.am    1  UNL1       -0.2806
      4 C         139.0482  142.8479  161.0685 C.2     1  UNL1        0.3106
      5 O         138.7680  143.1698  159.6305 O.2     1  UNL1       -0.2521
      6 N         140.3380  142.3137  161.6172 N.am    1  UNL1       -0.2050
      7 C         140.1748  142.1394  163.0981 C.2     1  UNL1        0.2527
      8 O         141.2189  141.6283  164.0461 O.2     1  UNL1       -0.2723
      9 H         137.1631  143.3354  162.1473 H       1  UNL1        0.1516
     10 C         139.2083  142.2013  164.8564 C.ar    1  UNL1        0.0021
     11 C         139.8549  143.2292  165.7370 C.ar    1  UNL1       -0.0010
     12 C         140.2789  142.8645  167.1288 C.ar    1  UNL1        0.0147
     13 C         140.0563  141.4720  167.6401 C.ar    1  UNL1        0.0571
     14 C         139.4097  140.4442  166.7595 C.ar    1  UNL1        0.0147
     15 C         138.9856  140.8088  165.3677 C.ar    1  UNL1       -0.0010
     16 N         140.4803  141.1073  169.0319 N.am    1  UNL1       -0.2212
     17 C         141.8207  141.3835  169.6461 C.3     1  UNL1        0.1489
     18 C         141.8073  140.8494  171.0477 C.3     1  UNL1        0.2320
     19 O         140.4586  140.2430  171.2998 O.3     1  UNL1       -0.4324
     20 C         139.6385  140.4025  170.0540 C.2     1  UNL1        0.4088
     21 O         138.2249  139.9385  169.8636 O.2     1  UNL1       -0.2258
     22 C         141.5739  142.0074  160.8243 C.3     1  UNL1        0.1714
     23 C         142.7581  142.9253  160.8968 C.2     1  UNL1        0.1957
     24 O         143.3003  143.5505  159.6458 O.2     1  UNL1       -0.2894
     25 C         143.4000  143.2180  162.2205 C.ar    1  UNL1        0.0640
     26 C         143.0509  144.4743  162.9620 C.ar    1  UNL1        0.0075
     27 C         143.6929  144.7670  164.2857 C.ar    1  UNL1        0.0299
     28 C         144.6840  143.8034  164.8680 C.ar    1  UNL1        0.1424
     29 F         145.3259  144.0961  166.1917 F       1  UNL1       -0.2041
     30 C         145.0331  142.5471  164.1266 C.ar    1  UNL1        0.0593
     31 C         144.3912  142.2544  162.8029 C.ar    1  UNL1        0.1451
     32 F         144.7404  140.9980  162.0614 F       1  UNL1       -0.2040
@<TRIPOS>BOND
     1     1     2    1
     2     2    10    1
     3    10    11   ar
     4    11    12   ar
     5    12    13   ar
     6    13    16    1
     7    16    17    1
     8    17    18    1
     9    18    19    1
    10    19    20    1
    11    20    21    2
    12    13    14   ar
    13    14    15   ar
    14     2     3    1
    15     3     4   am
    16     4     5    2
    17     4     6   am
    18     6    22    1
    19    22    23    1
    20    23    24    2
    21    23    25    1
    22    25    26   ar
    23    26    27   ar
    24    27    28   ar
    25    28    29    1
    26    28    30   ar
    27    30    31   ar
    28    31    32    1
    29     6     7   am
    30     7     8    2
    31     7     2    1
    32    15    10   ar
    33    31    25   ar
    34    20    16   am
    35     3     9    1
@<TRIPOS>MOLECULE
*****
 32 35 0 0 0
SMALL
GASTEIGER

@<TRIPOS>ATOM
      1 C         138.9264  137.7013  164.1096 C.3     1  UNL1        0.0337
      2 C         138.7506  139.1394  163.7211 C.3     1  UNL1        0.1467
      3 N         138.1682  138.5650  162.4638 N.am    1  UNL1       -0.2806
      4 C         137.7618  139.7053  161.5781 C.2     1  UNL1        0.3106
      5 O         137.1344  139.5871  160.2208 O.2     1  UNL1       -0.2521
      6 N         138.0931  140.9845  162.2879 N.am    1  UNL1       -0.2050
      7 C         138.7042  140.6347  163.6124 C.2     1  UNL1        0.2527
      8 O         139.1846  141.6093  164.6466 O.2     1  UNL1       -0.2723
      9 H         138.0698  137.6076  162.2564 H       1  UNL1        0.1516
     10 C         139.3698  139.4132  165.0597 C.ar    1  UNL1        0.0021
     11 C         138.5119  139.4498  166.2895 C.ar    1  UNL1       -0.0010
     12 C         139.1311  139.7235  167.6280 C.ar    1  UNL1        0.0147
     13 C         140.6082  139.9607  167.7366 C.ar    1  UNL1        0.0571
     14 C         141.4662  139.9241  166.5068 C.ar    1  UNL1        0.0147
     15 C         140.8469  139.6503  165.1683 C.ar    1  UNL1       -0.0010
     16 N         141.2274  140.2345  169.0752 N.am    1  UNL1       -0.2212
     17 C         140.7582  141.2523  170.0721 C.3     1  UNL1        0.1489
     18 C         141.6653  141.1854  171.2649 C.3     1  UNL1        0.2320
     19 O         142.6952  140.1261  171.0051 O.3     1  UNL1       -0.4324
     20 C         142.4245  139.5384  169.6518 C.2     1  UNL1        0.4088
     21 O         143.2126  138.4465  168.9912 O.2     1  UNL1       -0.2258
     22 C         137.8551  142.3701  161.7650 C.3     1  UNL1        0.1714
     23 C         138.9689  143.1216  161.0981 C.2     1  UNL1        0.1957
     24 O         138.9334  143.3571  159.6172 O.2     1  UNL1       -0.2894
     25 C         140.1182  143.6376  161.9122 C.ar    1  UNL1        0.0640
     26 C         140.0788  145.0308  162.4667 C.ar    1  UNL1        0.0075
     27 C         141.2281  145.5468  163.2808 C.ar    1  UNL1        0.0299
     28 C         142.4169  144.6697  163.5405 C.ar    1  UNL1        0.1424
     29 F         143.5662  145.1856  164.3546 F       1  UNL1       -0.2041
     30 C         142.4562  143.2764  162.9861 C.ar    1  UNL1        0.0593
     31 C         141.3070  142.7604  162.1720 C.ar    1  UNL1        0.1451
     32 F         141.3464  141.3672  161.6176 F       1  UNL1       -0.2040
@<TRIPOS>BOND
     1     1     2    1
     2     2    10    1
     3    10    11   ar
     4    11    12   ar
     5    12    13   ar
     6    13    16    1
     7    16    17    1
     8    17    18    1
     9    18    19    1
    10    19    20    1
    11    20    21    2
    12    13    14   ar
    13    14    15   ar
    14     2     3    1
    15     3     4   am
    16     4     5    2
    17     4     6   am
    18     6    22    1
    19    22    23    1
    20    23    24    2
    21    23    25    1
    22    25    26   ar
    23    26    27   ar
    24    27    28   ar
    25    28    29    1
    26    28    30   ar
    27    30    31   ar
    28    31    32    1
    29     6     7   am
    30     7     8    2
    31     7     2    1
    32    15    10   ar
    33    31    25   ar
    34    20    16   am
    35     3     9    1
@<TRIPOS>MOLECULE
*****
 32 35 0 0 0
SMALL
GASTEIGER

@<TRIPOS>ATOM
      1 C         142.7127  145.1154  163.8653 C.3     1  UNL1        0.0337
      2 C         142.0706  144.0078  163.0836 C.3     1  UNL1        0.1467
      3 N         142.6012  144.7519  161.8942 N.am    1  UNL1       -0.2806
      4 C         142.2042  143.9971  160.6604 C.2     1  UNL1        0.3106
      5 O         142.5266  144.3848  159.2477 O.2     1  UNL1       -0.2521
      6 N         141.4282  142.7865  161.0871 N.am    1  UNL1       -0.2050
      7 C         141.3456  142.7931  162.5848 C.2     1  UNL1        0.2527
      8 O         140.6586  141.7654  163.4346 O.2     1  UNL1       -0.2723
      9 H         143.1192  145.5888  161.9191 H       1  UNL1        0.1516
     10 C         141.6742  143.4953  164.4365 C.ar    1  UNL1        0.0021
     11 C         142.6202  142.6332  165.2187 C.ar    1  UNL1       -0.0010
     12 C         142.2238  142.1207  166.5715 C.ar    1  UNL1        0.0147
     13 C         140.8814  142.4703  167.1422 C.ar    1  UNL1        0.0571
     14 C         139.9353  143.3323  166.3600 C.ar    1  UNL1        0.0147
     15 C         140.3317  143.8448  165.0072 C.ar    1  UNL1       -0.0010
     16 N         140.4850  141.9577  168.4951 N.am    1  UNL1       -0.2212
     17 C         140.3528  140.5160  168.8877 C.3     1  UNL1        0.1489
     18 C         139.9373  140.4641  170.3281 C.3     1  UNL1        0.2320
     19 O         139.8127  141.8738  170.8256 O.3     1  UNL1       -0.4324
     20 C         140.1512  142.7968  169.6927 C.2     1  UNL1        0.4088
     21 O         140.1551  144.2958  169.7479 O.2     1  UNL1       -0.2258
     22 C         140.8383  141.7510  160.1761 C.3     1  UNL1        0.1714
     23 C         141.4952  140.4092  160.0411 C.2     1  UNL1        0.1957
     24 O         142.2092  140.0479  158.7724 O.2     1  UNL1       -0.2894
     25 C         141.4380  139.4287  161.1748 C.ar    1  UNL1        0.0640
     26 C         142.6429  139.2138  162.0420 C.ar    1  UNL1        0.0075
     27 C         142.5857  138.2333  163.1758 C.ar    1  UNL1        0.0299
     28 C         141.3236  137.4678  163.4424 C.ar    1  UNL1        0.1424
     29 F         141.2664  136.4873  164.5761 F       1  UNL1       -0.2041
     30 C         140.1187  137.6827  162.5752 C.ar    1  UNL1        0.0593
     31 C         140.1759  138.6631  161.4415 C.ar    1  UNL1        0.1451
     32 F         138.9709  138.8781  160.5743 F       1  UNL1       -0.2040
@<TRIPOS>BOND
     1     1     2    1
     2     2    10    1
     3    10    11   ar
     4    11    12   ar
     5    12    13   ar
     6    13    16    1
     7    16    17    1
     8    17    18    1
     9    18    19    1
    10    19    20    1
    11    20    21    2
    12    13    14   ar
    13    14    15   ar
    14     2     3    1
    15     3     4   am
    16     4     5    2
    17     4     6   am
    18     6    22    1
    19    22    23    1
    20    23    24    2
    21    23    25    1
    22    25    26   ar
    23    26    27   ar
    24    27    28   ar
    25    28    29    1
    26    28    30   ar
    27    30    31   ar
    28    31    32    1
    29     6     7   am
    30     7     8    2
    31     7     2    1
    32    15    10   ar
    33    31    25   ar
    34    20    16   am
    35     3     9    1
@<TRIPOS>MOLECULE
*****
 32 35 0 0 0
SMALL
GASTEIGER

@<TRIPOS>ATOM
      1 C         145.1840  139.5632  164.3264 C.3     1  UNL1        0.0337
      2 C         143.8813  139.8599  163.6444 C.3     1  UNL1        0.1467
      3 N         144.5874  139.3552  162.4210 N.am    1  UNL1       -0.2806
      4 C         143.6304  139.4325  161.2686 C.2     1  UNL1        0.3106
      5 O         143.9200  139.0284  159.8534 O.2     1  UNL1       -0.2521
      6 N         142.3329  139.9849  161.7797 N.am    1  UNL1       -0.2050
      7 C         142.4880  140.2491  163.2481 C.2     1  UNL1        0.2527
      8 O         141.4346  140.8048  164.1601 O.2     1  UNL1       -0.2723
      9 H         145.5158  139.0303  162.3814 H       1  UNL1        0.1516
     10 C         143.4476  140.3025  165.0105 C.ar    1  UNL1        0.0021
     11 C         143.5505  141.7478  165.3984 C.ar    1  UNL1       -0.0010
     12 C         143.1168  142.1904  166.7644 C.ar    1  UNL1        0.0147
     13 C         142.5802  141.1877  167.7425 C.ar    1  UNL1        0.0571
     14 C         142.4773  139.7424  167.3546 C.ar    1  UNL1        0.0147
     15 C         142.9110  139.2998  165.9886 C.ar    1  UNL1       -0.0010
     16 N         142.1465  141.6303  169.1086 N.am    1  UNL1       -0.2212
     17 C         140.8024  141.3875  169.7286 C.3     1  UNL1        0.1489
     18 C         140.8059  142.0006  171.0976 C.3     1  UNL1        0.2320
     19 O         142.1522  142.6223  171.3236 O.3     1  UNL1       -0.4324
     20 C         142.9807  142.3935  170.0943 C.2     1  UNL1        0.4088
     21 O         144.3951  142.8480  169.8871 O.2     1  UNL1       -0.2258
     22 C         141.0972  140.2302  160.9654 C.3     1  UNL1        0.1714
     23 C         140.6229  141.6330  160.7263 C.2     1  UNL1        0.1957
     24 O         140.9779  142.3377  159.4507 O.2     1  UNL1       -0.2894
     25 C         139.7934  142.3311  161.7629 C.ar    1  UNL1        0.0640
     26 C         138.4617  141.7677  162.1620 C.ar    1  UNL1        0.0075
     27 C         137.6322  142.4658  163.1986 C.ar    1  UNL1        0.0299
     28 C         138.1343  143.7273  163.8362 C.ar    1  UNL1        0.1424
     29 F         137.3048  144.4253  164.8728 F       1  UNL1       -0.2041
     30 C         139.4660  144.2906  163.4372 C.ar    1  UNL1        0.0593
     31 C         140.2955  143.5926  162.4006 C.ar    1  UNL1        0.1451
     32 F         141.6272  144.1560  162.0015 F       1  UNL1       -0.2040
@<TRIPOS>BOND
     1     1     2    1
     2     2    10    1
     3    10    11   ar
     4    11    12   ar
     5    12    13   ar
     6    13    16    1
     7    16    17    1
     8    17    18    1
     9    18    19    1
    10    19    20    1
    11    20    21    2
    12    13    14   ar
    13    14    15   ar
    14     2     3    1
    15     3     4   am
    16     4     5    2
    17     4     6   am
    18     6    22    1
    19    22    23    1
    20    23    24    2
    21    23    25    1
    22    25    26   ar
    23    26    27   ar
    24    27    28   ar
    25    28    29    1
    26    28    30   ar
    27    30    31   ar
    28    31    32    1
    29     6     7   am
    30     7     8    2
    31     7     2    1
    32    15    10   ar
    33    31    25   ar
    34    20    16   am
    35     3     9    1
@<TRIPOS>MOLECULE
*****
 32 35 0 0 0
SMALL
GASTEIGER

@<TRIPOS>ATOM
      1 C         142.5137  145.0400  163.9644 C.3     1  UNL1        0.0337
      2 C         142.5052  143.6418  163.4214 C.3     1  UNL1        0.1467
      3 N         142.8523  144.3113  162.1248 N.am    1  UNL1       -0.2806
      4 C         142.9860  143.2480  161.0753 C.2     1  UNL1        0.3106
      5 O         143.3247  143.4720  159.6314 O.2     1  UNL1       -0.2521
      6 N         142.7217  141.9213  161.7233 N.am    1  UNL1       -0.2050
      7 C         142.4245  142.1647  163.1733 C.2     1  UNL1        0.2527
      8 O         142.1031  141.1151  164.1957 O.2     1  UNL1       -0.2723
      9 H         142.9713  145.2788  161.9868 H       1  UNL1        0.1516
     10 C         142.1599  143.2646  164.8316 C.ar    1  UNL1        0.0021
     11 C         140.7311  143.2936  165.2873 C.ar    1  UNL1       -0.0010
     12 C         140.3859  142.9164  166.6974 C.ar    1  UNL1        0.0147
     13 C         141.4695  142.5102  167.6519 C.ar    1  UNL1        0.0571
     14 C         142.8983  142.4813  167.1962 C.ar    1  UNL1        0.0147
     15 C         143.2435  142.8585  165.7861 C.ar    1  UNL1       -0.0010
     16 N         141.1242  142.1330  169.0621 N.am    1  UNL1       -0.2212
     17 C         141.3347  140.7879  169.6917 C.3     1  UNL1        0.1489
     18 C         140.8484  140.8582  171.1089 C.3     1  UNL1        0.2320
     19 O         140.3374  142.2469  171.3552 O.3     1  UNL1       -0.4324
     20 C         140.5078  143.0347  170.0902 C.2     1  UNL1        0.4088
     21 O         140.1285  144.4719  169.8887 O.2     1  UNL1       -0.2258
     22 C         142.7496  140.5857  161.0411 C.3     1  UNL1        0.1714
     23 C         141.4720  139.8339  160.8118 C.2     1  UNL1        0.1957
     24 O         140.8645  139.7878  159.4411 O.2     1  UNL1       -0.2894
     25 C         140.8019  139.1282  161.9532 C.ar    1  UNL1        0.0640
     26 C         139.4234  139.5360  162.3817 C.ar    1  UNL1        0.0075
     27 C         138.7533  138.8302  163.5231 C.ar    1  UNL1        0.0299
     28 C         139.4616  137.7167  164.2361 C.ar    1  UNL1        0.1424
     29 F         138.7914  137.0110  165.3775 F       1  UNL1       -0.2041
     30 C         140.8400  137.3089  163.8076 C.ar    1  UNL1        0.0593
     31 C         141.5102  138.0146  162.6662 C.ar    1  UNL1        0.1451
     32 F         142.8886  137.6068  162.2377 F       1  UNL1       -0.2040
@<TRIPOS>BOND
     1     1     2    1
     2     2    10    1
     3    10    11   ar
     4    11    12   ar
     5    12    13   ar
     6    13    16    1
     7    16    17    1
     8    17    18    1
     9    18    19    1
    10    19    20    1
    11    20    21    2
    12    13    14   ar
    13    14    15   ar
    14     2     3    1
    15     3     4   am
    16     4     5    2
    17     4     6   am
    18     6    22    1
    19    22    23    1
    20    23    24    2
    21    23    25    1
    22    25    26   ar
    23    26    27   ar
    24    27    28   ar
    25    28    29    1
    26    28    30   ar
    27    30    31   ar
    28    31    32    1
    29     6     7   am
    30     7     8    2
    31     7     2    1
    32    15    10   ar
    33    31    25   ar
    34    20    16   am
    35     3     9    1
