@<TRIPOS>MOLECULE
*****
 36 39 0 0 0
SMALL
GASTEIGER

@<TRIPOS>ATOM
      1 C         137.8941  141.5508  161.9440 C.ar    1  UNL1        0.1417
      2 C         138.0362  140.6076  163.1016 C.ar    1  UNL1        0.0744
      3 C         138.5654  139.2218  162.8792 C.ar    1  UNL1        0.1504
      4 C         138.9524  138.7792  161.4993 C.ar    1  UNL1        0.0423
      5 C         138.8103  139.7224  160.3417 C.ar    1  UNL1        0.0597
      6 C         138.2811  141.1082  160.5640 C.ar    1  UNL1        0.0416
      7 C         139.1974  139.2798  158.9617 C.2     1  UNL1        0.2508
      8 O         138.3609  139.6814  157.7831 O.2     1  UNL1       -0.2698
      9 N         140.4208  138.4357  158.7603 N.am    1  UNL1       -0.2646
     10 H         140.9698  138.1721  159.5339 H       1  UNL1        0.1566
     11 C         140.8079  137.9931  157.3803 C.ar    1  UNL1        0.1538
     12 C         139.8353  137.2194  156.5404 C.ar    1  UNL1        0.1328
     13 N         140.2224  136.7769  155.1605 N.ar    1  UNL1       -0.2436
     14 C         141.5821  137.1080  154.6205 C.ar    1  UNL1        0.0786
     15 C         141.9691  136.6654  153.2404 C.3     1  UNL1        0.0538
     16 C         142.5547  137.8817  155.4604 C.ar    1  UNL1        0.1150
     17 N         142.1676  138.3242  156.8403 N.ar    1  UNL1       -0.2262
     18 O         137.3649  142.9367  162.1663 O.3     1  UNL1       -0.4765
     19 C         138.1122  143.8923  163.0484 C.3     1  UNL1        0.1954
     20 C         137.8155  143.9453  164.5178 C.3     1  UNL1        0.0500
     21 C         139.1564  144.7951  162.4611 C.3     1  UNL1        0.1855
     22 C         140.6387  144.4497  160.3555 C.3     1  UNL1        0.1743
     23 O         139.3366  144.8652  160.9736 O.3     1  UNL1       -0.3473
     24 O         138.7075  138.2785  164.0369 O.3     1  UNL1       -0.4347
     25 C         138.9205  138.8165  165.4208 C.ar    1  UNL1        0.2494
     26 C         137.8897  138.5795  166.4845 C.ar    1  UNL1        0.1569
     27 N         138.1027  139.1175  167.8684 N.ar    1  UNL1       -0.2328
     28 C         139.3465  139.8924  168.1887 C.ar    1  UNL1        0.1540
     29 C         140.3773  140.1293  167.1250 C.ar    1  UNL1        0.1258
     30 N         140.1642  139.5914  165.7411 N.ar    1  UNL1       -0.2068
     31 C         139.5596  140.4303  169.5726 C.2     1  UNL1        0.2683
     32 O         139.3182  139.5518  170.7642 O.2     1  UNL1       -0.2682
     33 N         140.0140  141.8469  169.7649 N.am    1  UNL1       -0.2747
     34 C         140.3470  142.9876  168.8495 C.3     1  UNL1        0.0955
     35 C         140.6567  143.8501  170.0369 C.3     1  UNL1        0.0430
     36 C         140.3238  142.7095  170.9524 C.3     1  UNL1        0.0955
@<TRIPOS>BOND
     1    22    23    1
     2    23    21    1
     3    21    19    1
     4    19    20    1
     5    19    18    1
     6    18     1    1
     7     1     2   ar
     8     2     3   ar
     9     3    24    1
    10    24    25    1
    11    25    26   ar
    12    26    27   ar
    13    27    28   ar
    14    28    31    1
    15    31    32    2
    16    31    33   am
    17    33    34    1
    18    34    35    1
    19    35    36    1
    20    28    29   ar
    21    29    30   ar
    22     3     4   ar
    23     4     5   ar
    24     5     7    1
    25     7     8    2
    26     7     9   am
    27     9    11    1
    28    11    12   ar
    29    12    13   ar
    30    13    14   ar
    31    14    15    1
    32    14    16   ar
    33    16    17   ar
    34     5     6   ar
    35     6     1   ar
    36    30    25   ar
    37    17    11   ar
    38    36    33    1
    39     9    10    1
@<TRIPOS>MOLECULE
*****
 36 39 0 0 0
SMALL
GASTEIGER

@<TRIPOS>ATOM
      1 C         144.3538  141.4153  162.9479 C.ar    1  UNL1        0.1417
      2 C         143.9019  140.5255  164.0677 C.ar    1  UNL1        0.0744
      3 C         143.3259  139.1738  163.7657 C.ar    1  UNL1        0.1504
      4 C         143.2018  138.7120  162.3441 C.ar    1  UNL1        0.0423
      5 C         143.6537  139.6018  161.2243 C.ar    1  UNL1        0.0597
      6 C         144.2297  140.9535  161.5262 C.ar    1  UNL1        0.0416
      7 C         143.5295  139.1400  159.8025 C.2     1  UNL1        0.2508
      8 O         144.2894  139.8426  158.7167 O.2     1  UNL1       -0.2698
      9 N         142.6456  137.9756  159.4666 N.am    1  UNL1       -0.2646
     10 H         142.1469  137.5145  160.1793 H       1  UNL1        0.1566
     11 C         142.5214  137.5138  158.0448 C.ar    1  UNL1        0.1538
     12 C         141.6664  138.2798  157.0794 C.ar    1  UNL1        0.1328
     13 N         141.5423  137.8180  155.6577 N.ar    1  UNL1       -0.2436
     14 C         142.2733  136.5902  155.2014 C.ar    1  UNL1        0.0786
     15 C         142.1491  136.1283  153.7796 C.3     1  UNL1        0.0538
     16 C         143.1283  135.8242  156.1669 C.ar    1  UNL1        0.1150
     17 N         143.2524  136.2860  157.5886 N.ar    1  UNL1       -0.2262
     18 O         144.9299  142.7670  163.2498 O.3     1  UNL1       -0.4765
     19 C         144.1732  143.7277  164.1184 C.3     1  UNL1        0.1954
     20 C         144.6747  144.0490  165.4951 C.3     1  UNL1        0.0500
     21 C         142.9151  144.3673  163.6102 C.3     1  UNL1        0.1855
     22 C         141.2690  142.9436  165.0292 C.3     1  UNL1        0.1743
     23 O         141.6439  144.2517  164.3981 O.3     1  UNL1       -0.3473
     24 O         142.8740  138.2839  164.8856 O.3     1  UNL1       -0.4347
     25 C         142.1828  138.8731  166.0794 C.ar    1  UNL1        0.2494
     26 C         142.9197  139.0153  167.3782 C.ar    1  UNL1        0.1569
     27 N         142.2285  139.6045  168.5720 N.ar    1  UNL1       -0.2328
     28 C         140.8004  140.0514  168.4670 C.ar    1  UNL1        0.1540
     29 C         140.0636  139.9091  167.1682 C.ar    1  UNL1        0.1258
     30 N         140.7548  139.3199  165.9744 N.ar    1  UNL1       -0.2068
     31 C         140.1092  140.6405  169.6608 C.2     1  UNL1        0.2683
     32 O         139.4019  139.7459  170.6351 O.2     1  UNL1       -0.2682
     33 N         140.1253  142.1243  169.8802 N.am    1  UNL1       -0.2747
     34 C         140.7076  143.2983  169.1503 C.3     1  UNL1        0.0955
     35 C         140.1480  144.2227  170.1906 C.3     1  UNL1        0.0430
     36 C         139.5657  143.0488  170.9206 C.3     1  UNL1        0.0955
@<TRIPOS>BOND
     1    22    23    1
     2    23    21    1
     3    21    19    1
     4    19    20    1
     5    19    18    1
     6    18     1    1
     7     1     2   ar
     8     2     3   ar
     9     3    24    1
    10    24    25    1
    11    25    26   ar
    12    26    27   ar
    13    27    28   ar
    14    28    31    1
    15    31    32    2
    16    31    33   am
    17    33    34    1
    18    34    35    1
    19    35    36    1
    20    28    29   ar
    21    29    30   ar
    22     3     4   ar
    23     4     5   ar
    24     5     7    1
    25     7     8    2
    26     7     9   am
    27     9    11    1
    28    11    12   ar
    29    12    13   ar
    30    13    14   ar
    31    14    15    1
    32    14    16   ar
    33    16    17   ar
    34     5     6   ar
    35     6     1   ar
    36    30    25   ar
    37    17    11   ar
    38    36    33    1
    39     9    10    1
@<TRIPOS>MOLECULE
*****
 36 39 0 0 0
SMALL
GASTEIGER

@<TRIPOS>ATOM
      1 C         141.3803  138.1231  161.6301 C.ar    1  UNL1        0.1417
      2 C         142.2966  138.2709  162.8085 C.ar    1  UNL1        0.0744
      3 C         143.6201  138.9583  162.6477 C.ar    1  UNL1        0.1504
      4 C         144.0273  139.4978  161.3087 C.ar    1  UNL1        0.0423
      5 C         143.1110  139.3500  160.1304 C.ar    1  UNL1        0.0597
      6 C         141.7875  138.6626  160.2911 C.ar    1  UNL1        0.0416
      7 C         143.5182  139.8895  158.7913 C.2     1  UNL1        0.2508
      8 O         143.5463  138.9848  157.5952 O.2     1  UNL1       -0.2698
      9 N         143.8972  141.3338  158.6483 N.am    1  UNL1       -0.2646
     10 H         143.8787  141.9276  159.4334 H       1  UNL1        0.1566
     11 C         144.3044  141.8733  157.3092 C.ar    1  UNL1        0.1538
     12 C         145.7519  141.8916  156.9166 C.ar    1  UNL1        0.1328
     13 N         146.1590  142.4312  155.5775 N.ar    1  UNL1       -0.2436
     14 C         145.1186  142.9524  154.6311 C.ar    1  UNL1        0.0786
     15 C         145.5257  143.4920  153.2920 C.3     1  UNL1        0.0538
     16 C         143.6710  142.9341  155.0237 C.ar    1  UNL1        0.1150
     17 N         143.2639  142.3946  156.3628 N.ar    1  UNL1       -0.2262
     18 O         140.0568  137.4357  161.7909 O.3     1  UNL1       -0.4765
     19 C         138.9358  138.1257  162.5100 C.3     1  UNL1        0.1954
     20 C         138.9538  138.2258  164.0065 C.3     1  UNL1        0.0500
     21 C         137.7966  138.7156  161.7325 C.3     1  UNL1        0.1855
     22 C         139.0579  140.9815  161.5754 C.3     1  UNL1        0.1743
     23 O         137.8164  140.1681  161.3585 O.3     1  UNL1       -0.3473
     24 O         144.5365  139.1061  163.8261 O.3     1  UNL1       -0.4347
     25 C         143.9661  139.2715  165.2036 C.ar    1  UNL1        0.2494
     26 C         144.0306  138.1373  166.1832 C.ar    1  UNL1        0.1569
     27 N         143.4602  138.3027  167.5606 N.ar    1  UNL1       -0.2328
     28 C         142.8254  139.6023  167.9585 C.ar    1  UNL1        0.1540
     29 C         142.7610  140.7364  166.9789 C.ar    1  UNL1        0.1258
     30 N         143.3314  140.5710  165.6014 N.ar    1  UNL1       -0.2068
     31 C         142.2551  139.7677  169.3359 C.2     1  UNL1        0.2683
     32 O         143.1580  139.7166  170.5326 O.2     1  UNL1       -0.2682
     33 N         140.7818  139.9841  169.5166 N.am    1  UNL1       -0.2747
     34 C         139.6042  140.0905  168.5935 C.3     1  UNL1        0.0955
     35 C         138.6983  140.2902  169.7722 C.3     1  UNL1        0.0430
     36 C         139.8758  140.1839  170.6953 C.3     1  UNL1        0.0955
@<TRIPOS>BOND
     1    22    23    1
     2    23    21    1
     3    21    19    1
     4    19    20    1
     5    19    18    1
     6    18     1    1
     7     1     2   ar
     8     2     3   ar
     9     3    24    1
    10    24    25    1
    11    25    26   ar
    12    26    27   ar
    13    27    28   ar
    14    28    31    1
    15    31    32    2
    16    31    33   am
    17    33    34    1
    18    34    35    1
    19    35    36    1
    20    28    29   ar
    21    29    30   ar
    22     3     4   ar
    23     4     5   ar
    24     5     7    1
    25     7     8    2
    26     7     9   am
    27     9    11    1
    28    11    12   ar
    29    12    13   ar
    30    13    14   ar
    31    14    15    1
    32    14    16   ar
    33    16    17   ar
    34     5     6   ar
    35     6     1   ar
    36    30    25   ar
    37    17    11   ar
    38    36    33    1
    39     9    10    1
@<TRIPOS>MOLECULE
*****
 36 39 0 0 0
SMALL
GASTEIGER

@<TRIPOS>ATOM
      1 C         141.0501  138.1915  162.6628 C.ar    1  UNL1        0.1417
      2 C         140.3689  138.3045  163.9944 C.ar    1  UNL1        0.0744
      3 C         138.9852  138.8767  164.0828 C.ar    1  UNL1        0.1504
      4 C         138.2826  139.3358  162.8397 C.ar    1  UNL1        0.0423
      5 C         138.9638  139.2228  161.5081 C.ar    1  UNL1        0.0597
      6 C         140.3475  138.6506  161.4196 C.ar    1  UNL1        0.0416
      7 C         138.2612  139.6820  160.2648 C.2     1  UNL1        0.2508
      8 O         136.7706  139.5549  160.1553 O.2     1  UNL1       -0.2698
      9 N         139.0492  140.2682  159.1311 N.am    1  UNL1       -0.2646
     10 H         140.0275  140.3516  159.2029 H       1  UNL1        0.1566
     11 C         138.3466  140.7274  157.8878 C.ar    1  UNL1        0.1538
     12 C         137.7955  142.1202  157.8088 C.ar    1  UNL1        0.1328
     13 N         137.0929  142.5793  156.5656 N.ar    1  UNL1       -0.2436
     14 C         136.9416  141.6456  155.4014 C.ar    1  UNL1        0.0786
     15 C         136.2390  142.1048  154.1581 C.3     1  UNL1        0.0538
     16 C         137.4928  140.2528  155.4804 C.ar    1  UNL1        0.1150
     17 N         138.1953  139.7937  156.7236 N.ar    1  UNL1       -0.2262
     18 O         142.4339  137.6193  162.5744 O.3     1  UNL1       -0.4765
     19 C         143.6121  138.5302  162.3960 C.3     1  UNL1        0.1954
     20 C         144.1050  138.8579  161.0177 C.3     1  UNL1        0.0500
     21 C         144.2976  139.1136  163.5960 C.3     1  UNL1        0.1855
     22 C         143.4151  141.0290  165.1133 C.3     1  UNL1        0.1743
     23 O         144.1671  140.5773  163.8965 O.3     1  UNL1       -0.3473
     24 O         138.3040  138.9897  165.4145 O.3     1  UNL1       -0.4347
     25 C         138.9094  139.8328  166.4974 C.ar    1  UNL1        0.2494
     26 C         139.6734  141.0740  166.1428 C.ar    1  UNL1        0.1569
     27 N         140.2787  141.9171  167.2257 N.ar    1  UNL1       -0.2328
     28 C         140.1201  141.5190  168.6632 C.ar    1  UNL1        0.1540
     29 C         139.3561  140.2778  169.0178 C.ar    1  UNL1        0.1258
     30 N         138.7507  139.4347  167.9349 N.ar    1  UNL1       -0.2068
     31 C         140.7255  142.3621  169.7462 C.2     1  UNL1        0.2683
     32 O         139.8412  143.0530  170.7414 O.2     1  UNL1       -0.2682
     33 N         142.2152  142.5142  169.8338 N.am    1  UNL1       -0.2747
     34 C         143.3825  141.9955  169.0473 C.3     1  UNL1        0.0955
     35 C         144.3220  142.7294  169.9578 C.3     1  UNL1        0.0430
     36 C         143.1547  143.2481  170.7442 C.3     1  UNL1        0.0955
@<TRIPOS>BOND
     1    22    23    1
     2    23    21    1
     3    21    19    1
     4    19    20    1
     5    19    18    1
     6    18     1    1
     7     1     2   ar
     8     2     3   ar
     9     3    24    1
    10    24    25    1
    11    25    26   ar
    12    26    27   ar
    13    27    28   ar
    14    28    31    1
    15    31    32    2
    16    31    33   am
    17    33    34    1
    18    34    35    1
    19    35    36    1
    20    28    29   ar
    21    29    30   ar
    22     3     4   ar
    23     4     5   ar
    24     5     7    1
    25     7     8    2
    26     7     9   am
    27     9    11    1
    28    11    12   ar
    29    12    13   ar
    30    13    14   ar
    31    14    15    1
    32    14    16   ar
    33    16    17   ar
    34     5     6   ar
    35     6     1   ar
    36    30    25   ar
    37    17    11   ar
    38    36    33    1
    39     9    10    1
@<TRIPOS>MOLECULE
*****
 36 39 0 0 0
SMALL
GASTEIGER

@<TRIPOS>ATOM
      1 C         143.0016  143.2209  161.1712 C.ar    1  UNL1        0.1417
      2 C         142.5708  142.0438  161.9950 C.ar    1  UNL1        0.0744
      3 C         142.8616  140.6504  161.5219 C.ar    1  UNL1        0.1504
      4 C         143.5832  140.4341  160.2248 C.ar    1  UNL1        0.0423
      5 C         144.0141  141.6112  159.4009 C.ar    1  UNL1        0.0597
      6 C         143.7233  143.0046  159.8741 C.ar    1  UNL1        0.0416
      7 C         144.7357  141.3949  158.1038 C.2     1  UNL1        0.2508
      8 O         144.6606  140.0636  157.4167 O.2     1  UNL1       -0.2698
      9 N         145.5324  142.5098  157.4938 N.am    1  UNL1       -0.2646
     10 H         145.5817  143.3836  157.9447 H       1  UNL1        0.1566
     11 C         146.2541  142.2935  156.1966 C.ar    1  UNL1        0.1538
     12 C         147.7534  142.2603  156.1690 C.ar    1  UNL1        0.1328
     13 N         148.4750  142.0441  154.8719 N.ar    1  UNL1       -0.2436
     14 C         147.6972  141.8610  153.6025 C.ar    1  UNL1        0.0786
     15 C         148.4189  141.6447  152.3053 C.3     1  UNL1        0.0538
     16 C         146.1979  141.8941  153.6301 C.ar    1  UNL1        0.1150
     17 N         145.4763  142.1104  154.9272 N.ar    1  UNL1       -0.2262
     18 O         142.7109  144.6143  161.6443 O.3     1  UNL1       -0.4765
     19 C         142.4927  144.8803  163.1043 C.3     1  UNL1        0.1954
     20 C         143.6687  145.0388  164.0218 C.3     1  UNL1        0.0500
     21 C         141.0983  144.9880  163.6469 C.3     1  UNL1        0.1855
     22 C         139.7349  146.2592  161.8371 C.3     1  UNL1        0.1743
     23 O         139.9309  145.0532  162.7073 O.3     1  UNL1       -0.3473
     24 O         142.4307  139.4733  162.3458 O.3     1  UNL1       -0.4347
     25 C         141.7825  139.6896  163.6812 C.ar    1  UNL1        0.2494
     26 C         142.6084  139.6409  164.9324 C.ar    1  UNL1        0.1569
     27 N         141.9602  139.8572  166.2678 N.ar    1  UNL1       -0.2328
     28 C         140.4861  140.1221  166.3518 C.ar    1  UNL1        0.1540
     29 C         139.6603  140.1707  165.1006 C.ar    1  UNL1        0.1258
     30 N         140.3085  139.9545  163.7652 N.ar    1  UNL1       -0.2068
     31 C         139.8380  140.3383  167.6871 C.2     1  UNL1        0.2683
     32 O         138.7978  139.3767  168.1805 O.2     1  UNL1       -0.2682
     33 N         140.2299  141.5163  168.5291 N.am    1  UNL1       -0.2747
     34 C         141.1963  142.6535  168.3780 C.3     1  UNL1        0.0955
     35 C         140.7842  143.1821  169.7199 C.3     1  UNL1        0.0430
     36 C         139.8178  142.0449  169.8711 C.3     1  UNL1        0.0955
@<TRIPOS>BOND
     1    22    23    1
     2    23    21    1
     3    21    19    1
     4    19    20    1
     5    19    18    1
     6    18     1    1
     7     1     2   ar
     8     2     3   ar
     9     3    24    1
    10    24    25    1
    11    25    26   ar
    12    26    27   ar
    13    27    28   ar
    14    28    31    1
    15    31    32    2
    16    31    33   am
    17    33    34    1
    18    34    35    1
    19    35    36    1
    20    28    29   ar
    21    29    30   ar
    22     3     4   ar
    23     4     5   ar
    24     5     7    1
    25     7     8    2
    26     7     9   am
    27     9    11    1
    28    11    12   ar
    29    12    13   ar
    30    13    14   ar
    31    14    15    1
    32    14    16   ar
    33    16    17   ar
    34     5     6   ar
    35     6     1   ar
    36    30    25   ar
    37    17    11   ar
    38    36    33    1
    39     9    10    1
@<TRIPOS>MOLECULE
*****
 36 39 0 0 0
SMALL
GASTEIGER

@<TRIPOS>ATOM
      1 C         144.3521  140.3790  161.6965 C.ar    1  UNL1        0.1417
      2 C         143.7008  139.6661  162.8443 C.ar    1  UNL1        0.0744
      3 C         142.7825  138.5088  162.5846 C.ar    1  UNL1        0.1504
      4 C         142.5155  138.0645  161.1771 C.ar    1  UNL1        0.0423
      5 C         143.1668  138.7773  160.0293 C.ar    1  UNL1        0.0597
      6 C         144.0851  139.9346  160.2890 C.ar    1  UNL1        0.0416
      7 C         142.8999  138.3330  158.6216 C.2     1  UNL1        0.2508
      8 O         142.7991  139.3474  157.5213 O.2     1  UNL1       -0.2698
      9 N         142.7337  136.8742  158.3144 N.am    1  UNL1       -0.2646
     10 H         142.7999  136.2084  159.0366 H       1  UNL1        0.1566
     11 C         142.4668  136.4299  156.9068 C.ar    1  UNL1        0.1538
     12 C         143.5771  135.8543  156.0787 C.ar    1  UNL1        0.1328
     13 N         143.3101  135.4100  154.6711 N.ar    1  UNL1       -0.2436
     14 C         141.9328  135.5412  154.0917 C.ar    1  UNL1        0.0786
     15 C         141.6658  135.0968  152.6841 C.3     1  UNL1        0.0538
     16 C         140.8224  136.1167  154.9198 C.ar    1  UNL1        0.1150
     17 N         141.0894  136.5611  156.3274 N.ar    1  UNL1       -0.2262
     18 O         145.2704  141.5363  161.9562 O.3     1  UNL1       -0.4765
     19 C         144.8603  142.6200  162.9087 C.3     1  UNL1        0.1954
     20 C         144.0900  143.8060  162.4087 C.3     1  UNL1        0.0500
     21 C         145.2206  142.5179  164.3613 C.3     1  UNL1        0.1855
     22 C         143.5109  142.6389  166.3138 C.3     1  UNL1        0.1743
     23 O         144.4661  143.3205  165.3793 O.3     1  UNL1       -0.3473
     24 O         142.1311  137.7960  163.7325 O.3     1  UNL1       -0.4347
     25 C         142.1687  138.3962  165.1067 C.ar    1  UNL1        0.2494
     26 C         143.3685  138.1892  165.9830 C.ar    1  UNL1        0.1569
     27 N         143.4061  138.7894  167.3571 N.ar    1  UNL1       -0.2328
     28 C         142.2439  139.5967  167.8550 C.ar    1  UNL1        0.1540
     29 C         141.0442  139.8037  166.9787 C.ar    1  UNL1        0.1258
     30 N         141.0067  139.2034  165.6045 N.ar    1  UNL1       -0.2068
     31 C         142.2815  140.1970  169.2291 C.2     1  UNL1        0.2683
     32 O         143.0580  139.5228  170.3211 O.2     1  UNL1       -0.2682
     33 N         141.5425  141.4715  169.5113 N.am    1  UNL1       -0.2747
     34 C         140.6876  142.4029  168.7041 C.3     1  UNL1        0.0955
     35 C         140.4974  143.2739  169.9104 C.3     1  UNL1        0.0430
     36 C         141.3524  142.3425  170.7176 C.3     1  UNL1        0.0955
@<TRIPOS>BOND
     1    22    23    1
     2    23    21    1
     3    21    19    1
     4    19    20    1
     5    19    18    1
     6    18     1    1
     7     1     2   ar
     8     2     3   ar
     9     3    24    1
    10    24    25    1
    11    25    26   ar
    12    26    27   ar
    13    27    28   ar
    14    28    31    1
    15    31    32    2
    16    31    33   am
    17    33    34    1
    18    34    35    1
    19    35    36    1
    20    28    29   ar
    21    29    30   ar
    22     3     4   ar
    23     4     5   ar
    24     5     7    1
    25     7     8    2
    26     7     9   am
    27     9    11    1
    28    11    12   ar
    29    12    13   ar
    30    13    14   ar
    31    14    15    1
    32    14    16   ar
    33    16    17   ar
    34     5     6   ar
    35     6     1   ar
    36    30    25   ar
    37    17    11   ar
    38    36    33    1
    39     9    10    1
@<TRIPOS>MOLECULE
*****
 36 39 0 0 0
SMALL
GASTEIGER

@<TRIPOS>ATOM
      1 C         142.1475  138.4264  161.8791 C.ar    1  UNL1        0.1417
      2 C         141.2839  137.9904  163.0253 C.ar    1  UNL1        0.0744
      3 C         139.7927  137.9506  162.8681 C.ar    1  UNL1        0.1504
      4 C         139.1651  138.3468  161.5647 C.ar    1  UNL1        0.0423
      5 C         140.0287  138.7828  160.4184 C.ar    1  UNL1        0.0597
      6 C         141.5199  138.8226  160.5756 C.ar    1  UNL1        0.0416
      7 C         139.4011  139.1790  159.1148 C.2     1  UNL1        0.2508
      8 O         139.4015  138.2212  157.9605 O.2     1  UNL1       -0.2698
      9 N         138.7731  140.5330  158.9657 N.am    1  UNL1       -0.2646
     10 H         138.7729  141.1617  159.7233 H       1  UNL1        0.1566
     11 C         138.1455  140.9292  157.6621 C.ar    1  UNL1        0.1538
     12 C         138.9486  141.6777  156.6399 C.ar    1  UNL1        0.1328
     13 N         138.3210  142.0739  155.3365 N.ar    1  UNL1       -0.2436
     14 C         136.8903  141.7216  155.0551 C.ar    1  UNL1        0.0786
     15 C         136.2627  142.1178  153.7516 C.3     1  UNL1        0.0538
     16 C         136.0873  140.9732  156.0773 C.ar    1  UNL1        0.1150
     17 N         136.7149  140.5770  157.3808 N.ar    1  UNL1       -0.2262
     18 O         143.6387  138.4663  162.0362 O.3     1  UNL1       -0.4765
     19 C         144.2861  139.6082  162.7621 C.3     1  UNL1        0.1954
     20 C         144.5517  140.8986  162.0450 C.3     1  UNL1        0.0500
     21 C         144.6679  139.4597  164.2051 C.3     1  UNL1        0.1855
     22 C         143.3045  141.1951  165.5760 C.3     1  UNL1        0.1743
     23 O         143.6699  139.7705  165.2808 O.3     1  UNL1       -0.3473
     24 O         138.9291  137.5145  164.0145 O.3     1  UNL1       -0.4347
     25 C         139.0112  138.2304  165.3301 C.ar    1  UNL1        0.2494
     26 C         140.2780  138.9295  165.7257 C.ar    1  UNL1        0.1569
     27 N         140.3601  139.6455  167.0412 N.ar    1  UNL1       -0.2328
     28 C         139.1754  139.6624  167.9612 C.ar    1  UNL1        0.1540
     29 C         137.9086  138.9633  167.5655 C.ar    1  UNL1        0.1258
     30 N         137.8265  138.2473  166.2500 N.ar    1  UNL1       -0.2068
     31 C         139.2575  140.3783  169.2767 C.2     1  UNL1        0.2683
     32 O         138.7541  139.7150  170.5243 O.2     1  UNL1       -0.2682
     33 N         139.8430  141.7577  169.3446 N.am    1  UNL1       -0.2747
     34 C         140.4291  142.7116  168.3463 C.3     1  UNL1        0.0955
     35 C         140.6711  143.7084  169.4408 C.3     1  UNL1        0.0430
     36 C         140.0851  142.7545  170.4391 C.3     1  UNL1        0.0955
@<TRIPOS>BOND
     1    22    23    1
     2    23    21    1
     3    21    19    1
     4    19    20    1
     5    19    18    1
     6    18     1    1
     7     1     2   ar
     8     2     3   ar
     9     3    24    1
    10    24    25    1
    11    25    26   ar
    12    26    27   ar
    13    27    28   ar
    14    28    31    1
    15    31    32    2
    16    31    33   am
    17    33    34    1
    18    34    35    1
    19    35    36    1
    20    28    29   ar
    21    29    30   ar
    22     3     4   ar
    23     4     5   ar
    24     5     7    1
    25     7     8    2
    26     7     9   am
    27     9    11    1
    28    11    12   ar
    29    12    13   ar
    30    13    14   ar
    31    14    15    1
    32    14    16   ar
    33    16    17   ar
    34     5     6   ar
    35     6     1   ar
    36    30    25   ar
    37    17    11   ar
    38    36    33    1
    39     9    10    1
@<TRIPOS>MOLECULE
*****
 36 39 0 0 0
SMALL
GASTEIGER

@<TRIPOS>ATOM
      1 C         142.2978  140.4551  159.3722 C.ar    1  UNL1        0.1417
      2 C         140.9571  140.4308  160.0446 C.ar    1  UNL1        0.0744
      3 C         139.9780  139.3401  159.7259 C.ar    1  UNL1        0.1504
      4 C         140.3394  138.2737  158.7349 C.ar    1  UNL1        0.0423
      5 C         141.6800  138.2980  158.0626 C.ar    1  UNL1        0.0597
      6 C         142.6592  139.3887  158.3812 C.ar    1  UNL1        0.0416
      7 C         142.0415  137.2315  157.0715 C.2     1  UNL1        0.2508
      8 O         143.4819  136.9645  156.7492 O.2     1  UNL1       -0.2698
      9 N         140.9627  136.4322  156.4030 N.am    1  UNL1       -0.2646
     10 H         140.0173  136.6075  156.6146 H       1  UNL1        0.1566
     11 C         141.3242  135.3657  155.4119 C.ar    1  UNL1        0.1538
     12 C         141.0248  135.5629  153.9554 C.ar    1  UNL1        0.1328
     13 N         141.3863  134.4965  152.9645 N.ar    1  UNL1       -0.2436
     14 C         142.0472  133.2329  153.4300 C.ar    1  UNL1        0.0786
     15 C         142.4087  132.1665  152.4390 C.3     1  UNL1        0.0538
     16 C         142.3465  133.0358  154.8865 C.ar    1  UNL1        0.1150
     17 N         141.9850  134.1022  155.8775 N.ar    1  UNL1       -0.2262
     18 O         143.2769  141.5458  159.6908 O.3     1  UNL1       -0.4765
     19 C         143.5737  141.8935  161.1195 C.3     1  UNL1        0.1954
     20 C         144.4396  140.9903  161.9468 C.3     1  UNL1        0.0500
     21 C         143.0046  143.1444  161.7208 C.3     1  UNL1        0.1855
     22 C         143.7868  144.9156  163.4531 C.3     1  UNL1        0.1743
     23 O         143.9144  144.2739  162.1032 O.3     1  UNL1       -0.3473
     24 O         138.6373  139.3158  160.3983 O.3     1  UNL1       -0.4347
     25 C         138.5497  139.2646  161.8949 C.ar    1  UNL1        0.2494
     26 C         138.1150  140.4778  162.6627 C.ar    1  UNL1        0.1569
     27 N         138.0274  140.4266  164.1592 N.ar    1  UNL1       -0.2328
     28 C         138.3745  139.1623  164.8880 C.ar    1  UNL1        0.1540
     29 C         138.8091  137.9492  164.1203 C.ar    1  UNL1        0.1258
     30 N         138.8967  138.0004  162.6237 N.ar    1  UNL1       -0.2068
     31 C         138.2869  139.1111  166.3846 C.2     1  UNL1        0.2683
     32 O         137.2345  138.2715  167.0460 O.2     1  UNL1       -0.2682
     33 N         139.2517  139.8996  167.2198 N.am    1  UNL1       -0.2747
     34 C         140.3994  140.8208  166.9293 C.3     1  UNL1        0.0955
     35 C         140.6162  141.0146  168.4009 C.3     1  UNL1        0.0430
     36 C         139.4685  140.0934  168.6913 C.3     1  UNL1        0.0955
@<TRIPOS>BOND
     1    22    23    1
     2    23    21    1
     3    21    19    1
     4    19    20    1
     5    19    18    1
     6    18     1    1
     7     1     2   ar
     8     2     3   ar
     9     3    24    1
    10    24    25    1
    11    25    26   ar
    12    26    27   ar
    13    27    28   ar
    14    28    31    1
    15    31    32    2
    16    31    33   am
    17    33    34    1
    18    34    35    1
    19    35    36    1
    20    28    29   ar
    21    29    30   ar
    22     3     4   ar
    23     4     5   ar
    24     5     7    1
    25     7     8    2
    26     7     9   am
    27     9    11    1
    28    11    12   ar
    29    12    13   ar
    30    13    14   ar
    31    14    15    1
    32    14    16   ar
    33    16    17   ar
    34     5     6   ar
    35     6     1   ar
    36    30    25   ar
    37    17    11   ar
    38    36    33    1
    39     9    10    1
@<TRIPOS>MOLECULE
*****
 36 39 0 0 0
SMALL
GASTEIGER

@<TRIPOS>ATOM
      1 C         142.8348  143.1312  160.8583 C.ar    1  UNL1        0.1417
      2 C         141.8453  142.0670  161.2301 C.ar    1  UNL1        0.0744
      3 C         141.7939  140.7857  160.4519 C.ar    1  UNL1        0.1504
      4 C         142.7320  140.5687  159.3017 C.ar    1  UNL1        0.0423
      5 C         143.7214  141.6329  158.9299 C.ar    1  UNL1        0.0597
      6 C         143.7728  142.9142  159.7082 C.ar    1  UNL1        0.0416
      7 C         144.6596  141.4159  157.7797 C.2     1  UNL1        0.2508
      8 O         144.7790  140.0572  157.1553 O.2     1  UNL1       -0.2698
      9 N         145.4783  142.5575  157.2539 N.am    1  UNL1       -0.2646
     10 H         145.3999  143.4492  157.6637 H       1  UNL1        0.1566
     11 C         146.4164  142.3405  156.1037 C.ar    1  UNL1        0.1538
     12 C         145.8846  142.2854  154.7023 C.ar    1  UNL1        0.1328
     13 N         146.8228  142.0684  153.5522 N.ar    1  UNL1       -0.2436
     14 C         148.2927  141.9064  153.8035 C.ar    1  UNL1        0.0786
     15 C         149.2308  141.6894  152.6534 C.3     1  UNL1        0.0538
     16 C         148.8244  141.9615  155.2050 C.ar    1  UNL1        0.1150
     17 N         147.8863  142.1785  156.3551 N.ar    1  UNL1       -0.2262
     18 O         142.8862  144.4125  161.6366 O.3     1  UNL1       -0.4765
     19 C         142.9121  144.3787  163.1359 C.3     1  UNL1        0.1954
     20 C         141.7091  144.8177  163.9170 C.3     1  UNL1        0.0500
     21 C         144.1412  143.9060  163.8543 C.3     1  UNL1        0.1855
     22 C         145.5146  141.8392  163.0848 C.3     1  UNL1        0.1743
     23 O         144.4404  142.4388  163.9430 O.3     1  UNL1       -0.3473
     24 O         140.8043  139.7215  160.8238 O.3     1  UNL1       -0.4347
     25 C         140.2857  139.6377  162.2288 C.ar    1  UNL1        0.2494
     26 C         138.9700  140.2661  162.5813 C.ar    1  UNL1        0.1569
     27 N         138.4513  140.1822  163.9863 N.ar    1  UNL1       -0.2328
     28 C         139.2483  139.4700  165.0387 C.ar    1  UNL1        0.1540
     29 C         140.5639  138.8417  164.6862 C.ar    1  UNL1        0.1258
     30 N         141.0826  138.9255  163.2812 N.ar    1  UNL1       -0.2068
     31 C         138.7296  139.3862  166.4437 C.2     1  UNL1        0.2683
     32 O         137.4856  138.6017  166.7384 O.2     1  UNL1       -0.2682
     33 N         139.4551  140.0869  167.5540 N.am    1  UNL1       -0.2747
     34 C         140.6877  140.9369  167.6453 C.3     1  UNL1        0.0955
     35 C         140.4810  141.0778  169.1243 C.3     1  UNL1        0.0430
     36 C         139.2484  140.2279  169.0330 C.3     1  UNL1        0.0955
@<TRIPOS>BOND
     1    22    23    1
     2    23    21    1
     3    21    19    1
     4    19    20    1
     5    19    18    1
     6    18     1    1
     7     1     2   ar
     8     2     3   ar
     9     3    24    1
    10    24    25    1
    11    25    26   ar
    12    26    27   ar
    13    27    28   ar
    14    28    31    1
    15    31    32    2
    16    31    33   am
    17    33    34    1
    18    34    35    1
    19    35    36    1
    20    28    29   ar
    21    29    30   ar
    22     3     4   ar
    23     4     5   ar
    24     5     7    1
    25     7     8    2
    26     7     9   am
    27     9    11    1
    28    11    12   ar
    29    12    13   ar
    30    13    14   ar
    31    14    15    1
    32    14    16   ar
    33    16    17   ar
    34     5     6   ar
    35     6     1   ar
    36    30    25   ar
    37    17    11   ar
    38    36    33    1
    39     9    10    1
