@<TRIPOS>MOLECULE
*****
 31 33 0 0 0
SMALL
GASTEIGER

@<TRIPOS>ATOM
      1 C         139.3653  137.9099  163.4260 C.ar    1  UNL1        0.1393
      2 C         140.7614  137.4597  163.1128 C.ar    1  UNL1        0.0370
      3 C         141.8725  137.7314  164.0831 C.ar    1  UNL1        0.0063
      4 C         141.5874  138.4533  165.3667 C.ar    1  UNL1        0.0392
      5 C         140.1912  138.9034  165.6799 C.ar    1  UNL1        0.0063
      6 C         139.0802  138.6318  164.7095 C.ar    1  UNL1        0.0370
      7 C         142.6985  138.7250  166.3371 C.2     1  UNL1        0.1961
      8 O         143.8938  137.8198  166.3814 O.2     1  UNL1       -0.2866
      9 C         142.6143  139.9019  167.2633 C.ar    1  UNL1        0.0460
     10 C         142.2387  139.6992  168.7014 C.ar    1  UNL1        0.0151
     11 C         142.1544  140.8761  169.6276 C.ar    1  UNL1        0.0578
     12 CL        141.7789  140.6734  171.0656 Cl      1  UNL1       -0.0822
     13 C         142.4458  142.2557  169.1157 C.ar    1  UNL1        0.0119
     14 C         142.8213  142.4583  167.6777 C.ar    1  UNL1        0.0077
     15 C         142.9055  141.2814  166.7515 C.ar    1  UNL1        0.0377
     16 BR        143.2811  141.4840  165.3135 Br      1  UNL1       -0.0489
     17 O         138.2542  137.6382  162.4555 O.3     1  UNL1       -0.4656
     18 C         137.9156  138.6495  161.4007 C.3     1  UNL1        0.2897
     19 N         137.6703  141.1957  161.8552 N.am    1  UNL1       -0.2808
     20 C         138.5165  140.0227  161.4579 C.2     1  UNL1        0.2707
     21 O         139.9637  140.2228  161.1177 O.2     1  UNL1       -0.2707
     22 H         136.7205  141.0644  162.0785 H       1  UNL1        0.1550
     23 C         139.8784  144.3637  160.9400 C.ar    1  UNL1        0.0970
     24 C         139.2775  142.9906  160.8830 C.ar    1  UNL1        0.0272
     25 C         138.2713  142.5689  161.9124 C.ar    1  UNL1        0.0512
     26 C         137.8660  143.5203  162.9989 C.ar    1  UNL1        0.0170
     27 C         138.4670  144.8935  163.0560 C.ar    1  UNL1        0.0316
     28 C         139.4732  145.3152  162.0265 C.ar    1  UNL1        0.1497
     29 F         140.0742  146.6884  162.0837 F       1  UNL1       -0.2035
     30 N         141.8909  145.2072  158.8812 N.1     1  UNL1       -0.1908
     31 C         140.8847  144.7855  159.9106 C.1     1  UNL1        0.1027
@<TRIPOS>BOND
     1    30    31    3
     2    31    23    1
     3    23    24   ar
     4    24    25   ar
     5    25    19    1
     6    19    20   am
     7    20    21    2
     8    20    18    1
     9    18    17    1
    10    17     1    1
    11     1     2   ar
    12     2     3   ar
    13     3     4   ar
    14     4     7    1
    15     7     8    2
    16     7     9    1
    17     9    10   ar
    18    10    11   ar
    19    11    12    1
    20    11    13   ar
    21    13    14   ar
    22    14    15   ar
    23    15    16    1
    24     4     5   ar
    25     5     6   ar
    26    25    26   ar
    27    26    27   ar
    28    27    28   ar
    29    28    29    1
    30    28    23   ar
    31     6     1   ar
    32    15     9   ar
    33    19    22    1
@<TRIPOS>MOLECULE
*****
 31 33 0 0 0
SMALL
GASTEIGER

@<TRIPOS>ATOM
      1 C         139.1047  144.8296  163.2136 C.ar    1  UNL1        0.1393
      2 C         140.4492  144.7839  163.8770 C.ar    1  UNL1        0.0370
      3 C         140.7527  143.7145  164.8841 C.ar    1  UNL1        0.0063
      4 C         139.7116  142.6908  165.2278 C.ar    1  UNL1        0.0392
      5 C         138.3671  142.7365  164.5644 C.ar    1  UNL1        0.0063
      6 C         138.0636  143.8059  163.5573 C.ar    1  UNL1        0.0370
      7 C         140.0150  141.6213  166.2349 C.2     1  UNL1        0.1961
      8 O         140.7646  141.9626  167.4885 O.2     1  UNL1       -0.2866
      9 C         139.5688  140.2106  165.9884 C.ar    1  UNL1        0.0460
     10 C         138.4641  139.6186  166.8126 C.ar    1  UNL1        0.0151
     11 C         138.0179  138.2079  166.5661 C.ar    1  UNL1        0.0578
     12 CL        136.9133  137.6158  167.3902 Cl      1  UNL1       -0.0822
     13 C         138.6763  137.3892  165.4953 C.ar    1  UNL1        0.0119
     14 C         139.7808  137.9813  164.6712 C.ar    1  UNL1        0.0077
     15 C         140.2271  139.3920  164.9177 C.ar    1  UNL1        0.0377
     16 BR        141.3317  139.9841  164.0936 Br      1  UNL1       -0.0489
     17 O         138.8013  145.8990  162.2065 O.3     1  UNL1       -0.4656
     18 C         139.7675  146.1767  161.0932 C.3     1  UNL1        0.2897
     19 N         141.9001  144.8370  160.4553 N.am    1  UNL1       -0.2808
     20 C         140.4167  145.0390  160.3624 C.2     1  UNL1        0.2707
     21 O         139.5825  144.1032  159.5386 O.2     1  UNL1       -0.2707
     22 H         142.4477  145.4512  160.9959 H       1  UNL1        0.1550
     23 C         143.4948  141.2793  159.7136 C.ar    1  UNL1        0.0970
     24 C         142.8456  142.4171  160.4443 C.ar    1  UNL1        0.0272
     25 C         142.5494  143.6992  159.7244 C.ar    1  UNL1        0.0512
     26 C         142.9023  143.8437  158.2738 C.ar    1  UNL1        0.0170
     27 C         143.5515  142.7060  157.5430 C.ar    1  UNL1        0.0316
     28 C         143.8478  141.4238  158.2629 C.ar    1  UNL1        0.1497
     29 F         144.4970  140.2860  157.5321 F       1  UNL1       -0.2035
     30 N         144.0873  138.7150  161.1534 N.1     1  UNL1       -0.1908
     31 C         143.7910  139.9972  160.4335 C.1     1  UNL1        0.1027
@<TRIPOS>BOND
     1    30    31    3
     2    31    23    1
     3    23    24   ar
     4    24    25   ar
     5    25    19    1
     6    19    20   am
     7    20    21    2
     8    20    18    1
     9    18    17    1
    10    17     1    1
    11     1     2   ar
    12     2     3   ar
    13     3     4   ar
    14     4     7    1
    15     7     8    2
    16     7     9    1
    17     9    10   ar
    18    10    11   ar
    19    11    12    1
    20    11    13   ar
    21    13    14   ar
    22    14    15   ar
    23    15    16    1
    24     4     5   ar
    25     5     6   ar
    26    25    26   ar
    27    26    27   ar
    28    27    28   ar
    29    28    29    1
    30    28    23   ar
    31     6     1   ar
    32    15     9   ar
    33    19    22    1
@<TRIPOS>MOLECULE
*****
 31 33 0 0 0
SMALL
GASTEIGER

@<TRIPOS>ATOM
      1 C         138.9316  144.4299  163.5598 C.ar    1  UNL1        0.1393
      2 C         137.8959  143.3856  163.2654 C.ar    1  UNL1        0.0370
      3 C         137.9453  142.0613  163.9680 C.ar    1  UNL1        0.0063
      4 C         139.0305  141.7813  164.9650 C.ar    1  UNL1        0.0392
      5 C         140.0662  142.8256  165.2593 C.ar    1  UNL1        0.0063
      6 C         140.0168  144.1499  164.5568 C.ar    1  UNL1        0.0370
      7 C         139.0799  140.4569  165.6676 C.2     1  UNL1        0.1961
      8 O         138.0399  139.4153  165.3787 O.2     1  UNL1       -0.2866
      9 C         140.1694  140.1741  166.6591 C.ar    1  UNL1        0.0460
     10 C         139.9454  140.4454  168.1173 C.ar    1  UNL1        0.0151
     11 C         141.0349  140.1627  169.1088 C.ar    1  UNL1        0.0578
     12 CL        140.8110  140.4339  170.5669 Cl      1  UNL1       -0.0822
     13 C         142.3485  139.6086  168.6420 C.ar    1  UNL1        0.0119
     14 C         142.5724  139.3373  167.1839 C.ar    1  UNL1        0.0077
     15 C         141.4829  139.6201  166.1924 C.ar    1  UNL1        0.0377
     16 BR        141.7068  139.3488  164.7343 Br      1  UNL1       -0.0489
     17 O         138.8822  145.7543  162.8572 O.3     1  UNL1       -0.4656
     18 C         139.8507  146.0533  161.7514 C.3     1  UNL1        0.2897
     19 N         141.9303  144.6800  161.0172 N.am    1  UNL1       -0.2808
     20 C         140.4527  144.9317  160.9581 C.2     1  UNL1        0.2707
     21 O         139.5773  144.0616  160.1056 O.2     1  UNL1       -0.2707
     22 H         142.5049  145.2510  161.5767 H       1  UNL1        0.1550
     23 C         143.4480  141.1302  160.0975 C.ar    1  UNL1        0.0970
     24 C         142.8459  142.2519  160.8908 C.ar    1  UNL1        0.0272
     25 C         142.5324  143.5583  160.2238 C.ar    1  UNL1        0.0512
     26 C         142.8209  143.7431  158.7635 C.ar    1  UNL1        0.0170
     27 C         143.4229  142.6214  157.9702 C.ar    1  UNL1        0.0316
     28 C         143.7365  141.3150  158.6372 C.ar    1  UNL1        0.1497
     29 F         144.3386  140.1933  157.8438 F       1  UNL1       -0.2035
     30 N         144.0750  138.5173  161.4316 N.1     1  UNL1       -0.1908
     31 C         143.7615  139.8238  160.7646 C.1     1  UNL1        0.1027
@<TRIPOS>BOND
     1    30    31    3
     2    31    23    1
     3    23    24   ar
     4    24    25   ar
     5    25    19    1
     6    19    20   am
     7    20    21    2
     8    20    18    1
     9    18    17    1
    10    17     1    1
    11     1     2   ar
    12     2     3   ar
    13     3     4   ar
    14     4     7    1
    15     7     8    2
    16     7     9    1
    17     9    10   ar
    18    10    11   ar
    19    11    12    1
    20    11    13   ar
    21    13    14   ar
    22    14    15   ar
    23    15    16    1
    24     4     5   ar
    25     5     6   ar
    26    25    26   ar
    27    26    27   ar
    28    27    28   ar
    29    28    29    1
    30    28    23   ar
    31     6     1   ar
    32    15     9   ar
    33    19    22    1
@<TRIPOS>MOLECULE
*****
 31 33 0 0 0
SMALL
GASTEIGER

@<TRIPOS>ATOM
      1 C         138.7598  143.9086  163.7228 C.ar    1  UNL1        0.1393
      2 C         139.7443  143.8400  164.8525 C.ar    1  UNL1        0.0370
      3 C         139.8475  142.5952  165.6829 C.ar    1  UNL1        0.0063
      4 C         138.9662  141.4189  165.3837 C.ar    1  UNL1        0.0392
      5 C         137.9817  141.4874  164.2540 C.ar    1  UNL1        0.0063
      6 C         137.8785  142.7323  163.4236 C.ar    1  UNL1        0.0370
      7 C         139.0693  140.1739  166.2141 C.2     1  UNL1        0.1961
      8 O         137.8819  139.2691  166.3599 O.2     1  UNL1       -0.2866
      9 C         140.3599  139.8339  166.8987 C.ar    1  UNL1        0.0460
     10 C         141.5101  139.2904  166.1038 C.ar    1  UNL1        0.0151
     11 C         142.8007  138.9504  166.7884 C.ar    1  UNL1        0.0578
     12 CL        143.9508  138.4069  165.9936 Cl      1  UNL1       -0.0822
     13 C         142.9412  139.1538  168.2680 C.ar    1  UNL1        0.0119
     14 C         141.7910  139.6972  169.0628 C.ar    1  UNL1        0.0077
     15 C         140.5004  140.0373  168.3782 C.ar    1  UNL1        0.0377
     16 BR        139.3503  140.5807  169.1730 Br      1  UNL1       -0.0489
     17 O         138.6567  145.1535  162.8924 O.3     1  UNL1       -0.4656
     18 C         139.8618  145.6719  162.1651 C.3     1  UNL1        0.2897
     19 N         141.4744  145.5682  160.1307 N.am    1  UNL1       -0.2808
     20 C         140.2125  145.1282  160.8118 C.2     1  UNL1        0.2707
     21 O         139.3011  144.1445  160.1395 O.2     1  UNL1       -0.2707
     22 H         142.0726  146.2138  160.5719 H       1  UNL1        0.1550
     23 C         141.6990  145.1829  156.1872 C.ar    1  UNL1        0.0970
     24 C         141.3484  145.7266  157.5405 C.ar    1  UNL1        0.0272
     25 C         141.8251  145.0244  158.7774 C.ar    1  UNL1        0.0512
     26 C         142.6523  143.7787  158.6609 C.ar    1  UNL1        0.0170
     27 C         143.0029  143.2350  157.3076 C.ar    1  UNL1        0.0316
     28 C         142.5262  143.9371  156.0707 C.ar    1  UNL1        0.1497
     29 F         142.8768  143.3934  154.7174 F       1  UNL1       -0.2035
     30 N         140.7456  146.5872  153.7135 N.1     1  UNL1       -0.1908
     31 C         141.2223  145.8850  154.9504 C.1     1  UNL1        0.1027
@<TRIPOS>BOND
     1    30    31    3
     2    31    23    1
     3    23    24   ar
     4    24    25   ar
     5    25    19    1
     6    19    20   am
     7    20    21    2
     8    20    18    1
     9    18    17    1
    10    17     1    1
    11     1     2   ar
    12     2     3   ar
    13     3     4   ar
    14     4     7    1
    15     7     8    2
    16     7     9    1
    17     9    10   ar
    18    10    11   ar
    19    11    12    1
    20    11    13   ar
    21    13    14   ar
    22    14    15   ar
    23    15    16    1
    24     4     5   ar
    25     5     6   ar
    26    25    26   ar
    27    26    27   ar
    28    27    28   ar
    29    28    29    1
    30    28    23   ar
    31     6     1   ar
    32    15     9   ar
    33    19    22    1
@<TRIPOS>MOLECULE
*****
 31 33 0 0 0
SMALL
GASTEIGER

@<TRIPOS>ATOM
      1 C         138.7093  144.2668  163.3700 C.ar    1  UNL1        0.1393
      2 C         137.8345  143.0964  163.0312 C.ar    1  UNL1        0.0370
      3 C         137.9554  141.8197  163.8092 C.ar    1  UNL1        0.0063
      4 C         138.9510  141.7134  164.9260 C.ar    1  UNL1        0.0392
      5 C         139.8258  142.8839  165.2648 C.ar    1  UNL1        0.0063
      6 C         139.7049  144.1606  164.4868 C.ar    1  UNL1        0.0370
      7 C         139.0720  140.4367  165.7041 C.2     1  UNL1        0.1961
      8 O         137.8698  139.5614  165.9006 O.2     1  UNL1       -0.2866
      9 C         140.3951  140.0353  166.2857 C.ar    1  UNL1        0.0460
     10 C         141.5101  139.5990  165.3822 C.ar    1  UNL1        0.0151
     11 C         142.8333  139.1976  165.9637 C.ar    1  UNL1        0.0578
     12 CL        143.9483  138.7613  165.0603 Cl      1  UNL1       -0.0822
     13 C         143.0413  139.2325  167.4489 C.ar    1  UNL1        0.0119
     14 C         141.9263  139.6687  168.3524 C.ar    1  UNL1        0.0077
     15 C         140.6031  140.0701  167.7708 C.ar    1  UNL1        0.0377
     16 BR        139.4881  140.5064  168.6742 Br      1  UNL1       -0.0489
     17 O         138.5884  145.5436  162.5919 O.3     1  UNL1       -0.4656
     18 C         139.6786  145.9513  161.6457 C.3     1  UNL1        0.2897
     19 N         141.7814  144.8157  160.6266 N.am    1  UNL1       -0.2808
     20 C         140.2896  144.9379  160.7240 C.2     1  UNL1        0.2707
     21 O         139.4087  144.0466  159.8995 O.2     1  UNL1       -0.2707
     22 H         142.3596  145.4007  161.1677 H       1  UNL1        0.1550
     23 C         143.3990  141.4403  159.3076 C.ar    1  UNL1        0.0970
     24 C         142.7881  142.4538  160.2293 C.ar    1  UNL1        0.0272
     25 C         142.3924  143.8023  159.7048 C.ar    1  UNL1        0.0512
     26 C         142.6076  144.1373  158.2587 C.ar    1  UNL1        0.0170
     27 C         143.2186  143.1238  157.3370 C.ar    1  UNL1        0.0316
     28 C         143.6143  141.7753  157.8614 C.ar    1  UNL1        0.1497
     29 F         144.2253  140.7618  156.9396 F       1  UNL1       -0.2035
     30 N         144.1904  138.7434  160.3565 N.1     1  UNL1       -0.1908
     31 C         143.7947  140.0918  159.8320 C.1     1  UNL1        0.1027
@<TRIPOS>BOND
     1    30    31    3
     2    31    23    1
     3    23    24   ar
     4    24    25   ar
     5    25    19    1
     6    19    20   am
     7    20    21    2
     8    20    18    1
     9    18    17    1
    10    17     1    1
    11     1     2   ar
    12     2     3   ar
    13     3     4   ar
    14     4     7    1
    15     7     8    2
    16     7     9    1
    17     9    10   ar
    18    10    11   ar
    19    11    12    1
    20    11    13   ar
    21    13    14   ar
    22    14    15   ar
    23    15    16    1
    24     4     5   ar
    25     5     6   ar
    26    25    26   ar
    27    26    27   ar
    28    27    28   ar
    29    28    29    1
    30    28    23   ar
    31     6     1   ar
    32    15     9   ar
    33    19    22    1
@<TRIPOS>MOLECULE
*****
 31 33 0 0 0
SMALL
GASTEIGER

@<TRIPOS>ATOM
      1 C         141.0230  138.0218  163.2903 C.ar    1  UNL1        0.1393
      2 C         142.1214  138.5053  164.1901 C.ar    1  UNL1        0.0370
      3 C         141.7952  139.0282  165.5576 C.ar    1  UNL1        0.0063
      4 C         140.3706  139.0677  166.0253 C.ar    1  UNL1        0.0392
      5 C         139.2721  138.5843  165.1254 C.ar    1  UNL1        0.0063
      6 C         139.5983  138.0614  163.7579 C.ar    1  UNL1        0.0370
      7 C         140.0443  139.5907  167.3928 C.2     1  UNL1        0.1961
      8 O         138.6606  139.4265  167.9482 O.2     1  UNL1       -0.2866
      9 C         141.1017  140.2779  168.2049 C.ar    1  UNL1        0.0460
     10 C         141.8541  139.5158  169.2553 C.ar    1  UNL1        0.0151
     11 C         142.9116  140.2030  170.0675 C.ar    1  UNL1        0.0578
     12 CL        143.6640  139.4410  171.1178 Cl      1  UNL1       -0.0822
     13 C         143.2167  141.6523  169.8292 C.ar    1  UNL1        0.0119
     14 C         142.4643  142.4142  168.7789 C.ar    1  UNL1        0.0077
     15 C         141.4068  141.7271  167.9667 C.ar    1  UNL1        0.0377
     16 BR        140.6545  142.4890  166.9164 Br      1  UNL1       -0.0489
     17 O         141.3492  137.4989  161.9227 O.3     1  UNL1       -0.4656
     18 C         141.5383  138.4526  160.7805 C.3     1  UNL1        0.2897
     19 N         141.9871  140.9242  161.4434 N.am    1  UNL1       -0.2808
     20 C         141.0663  139.8711  160.9019 C.2     1  UNL1        0.2707
     21 O         139.6735  140.2367  160.4818 O.2     1  UNL1       -0.2707
     22 H         142.9012  140.6843  161.7191 H       1  UNL1        0.1550
     23 C         140.2409  144.1854  162.8808 C.ar    1  UNL1        0.0970
     24 C         140.7130  142.7668  162.7594 C.ar    1  UNL1        0.0272
     25 C         141.5150  142.3429  161.5648 C.ar    1  UNL1        0.0512
     26 C         141.8449  143.3375  160.4915 C.ar    1  UNL1        0.0170
     27 C         141.3728  144.7561  160.6130 C.ar    1  UNL1        0.0316
     28 C         140.5708  145.1800  161.8076 C.ar    1  UNL1        0.1497
     29 F         140.0987  146.5986  161.9289 F       1  UNL1       -0.2035
     30 N         138.6369  145.0332  165.2700 N.1     1  UNL1       -0.1908
     31 C         139.4389  144.6093  164.0754 C.1     1  UNL1        0.1027
@<TRIPOS>BOND
     1    30    31    3
     2    31    23    1
     3    23    24   ar
     4    24    25   ar
     5    25    19    1
     6    19    20   am
     7    20    21    2
     8    20    18    1
     9    18    17    1
    10    17     1    1
    11     1     2   ar
    12     2     3   ar
    13     3     4   ar
    14     4     7    1
    15     7     8    2
    16     7     9    1
    17     9    10   ar
    18    10    11   ar
    19    11    12    1
    20    11    13   ar
    21    13    14   ar
    22    14    15   ar
    23    15    16    1
    24     4     5   ar
    25     5     6   ar
    26    25    26   ar
    27    26    27   ar
    28    27    28   ar
    29    28    29    1
    30    28    23   ar
    31     6     1   ar
    32    15     9   ar
    33    19    22    1
@<TRIPOS>MOLECULE
*****
 31 33 0 0 0
SMALL
GASTEIGER

@<TRIPOS>ATOM
      1 C         139.2826  137.8958  163.7109 C.ar    1  UNL1        0.1393
      2 C         139.1078  138.7797  164.9102 C.ar    1  UNL1        0.0370
      3 C         140.2813  139.0882  165.7919 C.ar    1  UNL1        0.0063
      4 C         141.6297  138.5129  165.4744 C.ar    1  UNL1        0.0392
      5 C         141.8045  137.6290  164.2751 C.ar    1  UNL1        0.0063
      6 C         140.6309  137.3205  163.3934 C.ar    1  UNL1        0.0370
      7 C         142.8033  138.8214  166.3562 C.2     1  UNL1        0.1961
      8 O         144.0302  137.9602  166.3004 O.2     1  UNL1       -0.2866
      9 C         142.7501  139.9912  167.2937 C.ar    1  UNL1        0.0460
     10 C         142.4060  139.7795  168.7383 C.ar    1  UNL1        0.0151
     11 C         142.3527  140.9492  169.6758 C.ar    1  UNL1        0.0578
     12 CL        142.0087  140.7376  171.1203 Cl      1  UNL1       -0.0822
     13 C         142.6435  142.3306  169.1686 C.ar    1  UNL1        0.0119
     14 C         142.9876  142.5423  167.7241 C.ar    1  UNL1        0.0077
     15 C         143.0408  141.3725  166.7866 C.ar    1  UNL1        0.0377
     16 BR        143.3849  141.5842  165.3420 Br      1  UNL1       -0.0489
     17 O         138.1089  137.5873  162.8291 O.3     1  UNL1       -0.4656
     18 C         137.9727  138.2645  161.4977 C.3     1  UNL1        0.2897
     19 N         139.6688  140.1302  160.8712 N.am    1  UNL1       -0.2808
     20 C         138.3108  139.7192  161.3580 C.2     1  UNL1        0.2707
     21 O         137.2909  140.7630  161.7051 O.2     1  UNL1       -0.2707
     22 H         140.3382  139.4452  160.6434 H       1  UNL1        0.1550
     23 C         141.1773  143.7200  161.6380 C.ar    1  UNL1        0.0970
     24 C         140.8392  142.2653  161.7777 C.ar    1  UNL1        0.0272
     25 C         140.0069  141.5850  160.7315 C.ar    1  UNL1        0.0512
     26 C         139.5126  142.3594  159.5458 C.ar    1  UNL1        0.0170
     27 C         139.8507  143.8140  159.4062 C.ar    1  UNL1        0.0316
     28 C         140.6830  144.4944  160.4523 C.ar    1  UNL1        0.1497
     29 F         141.0211  145.9491  160.3127 F       1  UNL1       -0.2035
     30 N         142.8420  145.0806  163.7303 N.1     1  UNL1       -0.1908
     31 C         142.0097  144.4003  162.6842 C.1     1  UNL1        0.1027
@<TRIPOS>BOND
     1    30    31    3
     2    31    23    1
     3    23    24   ar
     4    24    25   ar
     5    25    19    1
     6    19    20   am
     7    20    21    2
     8    20    18    1
     9    18    17    1
    10    17     1    1
    11     1     2   ar
    12     2     3   ar
    13     3     4   ar
    14     4     7    1
    15     7     8    2
    16     7     9    1
    17     9    10   ar
    18    10    11   ar
    19    11    12    1
    20    11    13   ar
    21    13    14   ar
    22    14    15   ar
    23    15    16    1
    24     4     5   ar
    25     5     6   ar
    26    25    26   ar
    27    26    27   ar
    28    27    28   ar
    29    28    29    1
    30    28    23   ar
    31     6     1   ar
    32    15     9   ar
    33    19    22    1
@<TRIPOS>MOLECULE
*****
 31 33 0 0 0
SMALL
GASTEIGER

@<TRIPOS>ATOM
      1 C         143.2893  139.1541  164.1358 C.ar    1  UNL1        0.1393
      2 C         143.6213  140.2052  165.1532 C.ar    1  UNL1        0.0370
      3 C         142.6976  140.4478  166.3098 C.ar    1  UNL1        0.0063
      4 C         141.4418  139.6394  166.4491 C.ar    1  UNL1        0.0392
      5 C         141.1098  138.5883  165.4317 C.ar    1  UNL1        0.0063
      6 C         142.0335  138.3457  164.2751 C.ar    1  UNL1        0.0370
      7 C         140.5180  139.8820  167.6057 C.2     1  UNL1        0.1961
      8 O         139.1704  139.2242  167.6401 O.2     1  UNL1       -0.2866
      9 C         140.9419  140.7825  168.7280 C.ar    1  UNL1        0.0460
     10 C         140.4280  142.1902  168.7951 C.ar    1  UNL1        0.0151
     11 C         140.8519  143.0906  169.9174 C.ar    1  UNL1        0.0578
     12 CL        140.3382  144.4982  169.9845 Cl      1  UNL1       -0.0822
     13 C         141.7896  142.5833  170.9726 C.ar    1  UNL1        0.0119
     14 C         142.3034  141.1757  170.9055 C.ar    1  UNL1        0.0077
     15 C         141.8795  140.2753  169.7832 C.ar    1  UNL1        0.0377
     16 BR        142.3933  138.8676  169.7161 Br      1  UNL1       -0.0489
     17 O         144.2131  138.9115  162.9792 O.3     1  UNL1       -0.4656
     18 C         144.1653  139.8110  161.7798 C.3     1  UNL1        0.2897
     19 N         142.0840  141.3554  161.5991 N.am    1  UNL1       -0.2808
     20 C         143.5446  141.1722  161.8874 C.2     1  UNL1        0.2707
     21 O         144.3844  142.3504  162.2832 O.2     1  UNL1       -0.2707
     22 H         141.5327  140.5822  161.3393 H       1  UNL1        0.1550
     23 C         140.0713  144.4555  163.0444 C.ar    1  UNL1        0.0970
     24 C         140.6921  143.0943  162.9367 C.ar    1  UNL1        0.0272
     25 C         141.4632  142.7167  161.7068 C.ar    1  UNL1        0.0512
     26 C         141.6136  143.7005  160.5845 C.ar    1  UNL1        0.0170
     27 C         140.9929  145.0617  160.6921 C.ar    1  UNL1        0.0316
     28 C         140.2217  145.4392  161.9221 C.ar    1  UNL1        0.1497
     29 F         139.6010  146.8006  162.0297 F       1  UNL1       -0.2035
     30 N         138.5291  145.2105  165.5044 N.1     1  UNL1       -0.1908
     31 C         139.3002  144.8330  164.2744 C.1     1  UNL1        0.1027
@<TRIPOS>BOND
     1    30    31    3
     2    31    23    1
     3    23    24   ar
     4    24    25   ar
     5    25    19    1
     6    19    20   am
     7    20    21    2
     8    20    18    1
     9    18    17    1
    10    17     1    1
    11     1     2   ar
    12     2     3   ar
    13     3     4   ar
    14     4     7    1
    15     7     8    2
    16     7     9    1
    17     9    10   ar
    18    10    11   ar
    19    11    12    1
    20    11    13   ar
    21    13    14   ar
    22    14    15   ar
    23    15    16    1
    24     4     5   ar
    25     5     6   ar
    26    25    26   ar
    27    26    27   ar
    28    27    28   ar
    29    28    29    1
    30    28    23   ar
    31     6     1   ar
    32    15     9   ar
    33    19    22    1
@<TRIPOS>MOLECULE
*****
 31 33 0 0 0
SMALL
GASTEIGER

@<TRIPOS>ATOM
      1 C         145.0385  141.2389  162.5370 C.ar    1  UNL1        0.1393
      2 C         144.9111  141.8942  163.8802 C.ar    1  UNL1        0.0370
      3 C         144.2694  141.1558  165.0172 C.ar    1  UNL1        0.0063
      4 C         143.7551  139.7619  164.8109 C.ar    1  UNL1        0.0392
      5 C         143.8825  139.1065  163.4677 C.ar    1  UNL1        0.0063
      6 C         144.5242  139.8450  162.3307 C.ar    1  UNL1        0.0370
      7 C         143.1133  139.0233  165.9479 C.2     1  UNL1        0.1961
      8 O         143.9615  138.2518  166.9150 O.2     1  UNL1       -0.2866
      9 C         141.6233  139.0563  166.1178 C.ar    1  UNL1        0.0460
     10 C         140.7470  138.2422  165.2125 C.ar    1  UNL1        0.0151
     11 C         139.2571  138.2752  165.3824 C.ar    1  UNL1        0.0578
     12 CL        138.3808  137.4612  164.4772 Cl      1  UNL1       -0.0822
     13 C         138.6434  139.1223  166.4576 C.ar    1  UNL1        0.0119
     14 C         139.5196  139.9363  167.3628 C.ar    1  UNL1        0.0077
     15 C         141.0096  139.9033  167.1929 C.ar    1  UNL1        0.0377
     16 BR        141.8859  140.7173  168.0981 Br      1  UNL1       -0.0489
     17 O         145.6803  141.9774  161.3999 O.3     1  UNL1       -0.4656
     18 C         144.8421  142.8200  160.4847 C.3     1  UNL1        0.2897
     19 N         142.9396  143.9226  161.8683 N.am    1  UNL1       -0.2808
     20 C         143.3805  143.0063  160.7656 C.2     1  UNL1        0.2707
     21 O         142.3598  142.2764  159.9438 O.2     1  UNL1       -0.2707
     22 H         143.6095  144.4017  162.4077 H       1  UNL1        0.1550
     23 C         139.1594  143.1099  162.7628 C.ar    1  UNL1        0.0970
     24 C         140.6210  142.9236  162.4819 C.ar    1  UNL1        0.0272
     25 C         141.4779  144.1090  162.1492 C.ar    1  UNL1        0.0512
     26 C         140.8731  145.4806  162.0973 C.ar    1  UNL1        0.0170
     27 C         139.4115  145.6669  162.3781 C.ar    1  UNL1        0.0316
     28 C         138.5546  144.4816  162.7109 C.ar    1  UNL1        0.1497
     29 F         137.0929  144.6679  162.9917 F       1  UNL1       -0.2035
     30 N         137.4457  140.7392  163.4283 N.1     1  UNL1       -0.1908
     31 C         138.3026  141.9245  163.0955 C.1     1  UNL1        0.1027
@<TRIPOS>BOND
     1    30    31    3
     2    31    23    1
     3    23    24   ar
     4    24    25   ar
     5    25    19    1
     6    19    20   am
     7    20    21    2
     8    20    18    1
     9    18    17    1
    10    17     1    1
    11     1     2   ar
    12     2     3   ar
    13     3     4   ar
    14     4     7    1
    15     7     8    2
    16     7     9    1
    17     9    10   ar
    18    10    11   ar
    19    11    12    1
    20    11    13   ar
    21    13    14   ar
    22    14    15   ar
    23    15    16    1
    24     4     5   ar
    25     5     6   ar
    26    25    26   ar
    27    26    27   ar
    28    27    28   ar
    29    28    29    1
    30    28    23   ar
    31     6     1   ar
    32    15     9   ar
    33    19    22    1
