@<TRIPOS>MOLECULE
*****
 25 27 0 0 0
SMALL
GASTEIGER

@<TRIPOS>ATOM
      1 C         142.2145  142.2304  162.7915 C.3     1  UNL1        0.4092
      2 N         141.4463  143.4751  162.4590 N.ar    1  UNL1       -0.1494
      3 C         141.5465  144.0744  161.0876 C.ar    1  UNL1        0.2701
      4 C         140.7784  145.3192  160.7552 C.ar    1  UNL1        0.0787
      5 C         139.9099  145.9645  161.7940 C.ar    1  UNL1        0.0136
      6 C         139.8097  145.3652  163.1654 C.ar    1  UNL1        0.0787
      7 C         140.5779  144.1205  163.4979 C.ar    1  UNL1        0.2701
      8 C         142.4150  143.4291  160.0487 C.1     1  UNL1        0.0086
      9 C         143.2834  142.7837  159.0098 C.1     1  UNL1       -0.0532
     10 C         144.1519  142.1383  157.9709 C.ar    1  UNL1        0.0527
     11 C         145.5378  142.6565  157.7247 C.ar    1  UNL1        0.0091
     12 C         146.4062  142.0111  156.6858 C.ar    1  UNL1        0.0007
     13 C         145.8886  140.8476  155.8931 C.ar    1  UNL1        0.0009
     14 C         144.5027  140.3295  156.1392 C.ar    1  UNL1        0.0120
     15 C         143.6343  140.9748  157.1781 C.ar    1  UNL1        0.0653
     16 CL        142.2483  140.4567  157.4244 Cl      1  UNL1       -0.0816
     17 C         140.4776  143.5211  164.8693 C.1     1  UNL1        0.0086
     18 C         140.3773  142.9217  166.2407 C.1     1  UNL1       -0.0532
     19 C         140.2770  142.3224  167.6121 C.ar    1  UNL1        0.0527
     20 C         140.4531  143.1887  168.8239 C.ar    1  UNL1        0.0091
     21 C         140.3529  142.5894  170.1953 C.ar    1  UNL1        0.0007
     22 C         140.0764  141.1238  170.3549 C.ar    1  UNL1        0.0009
     23 C         139.9003  140.2575  169.1431 C.ar    1  UNL1        0.0120
     24 C         140.0005  140.8568  167.7717 C.ar    1  UNL1        0.0653
     25 CL        139.8244  139.9904  166.5599 Cl      1  UNL1       -0.0816
@<TRIPOS>UNITY_ATOM_ATTR
2 1
charge 1
@<TRIPOS>BOND
     1     1     2    1
     2     2     3   ar
     3     3     8    1
     4     8     9    3
     5     9    10    1
     6    10    11   ar
     7    11    12   ar
     8    12    13   ar
     9    13    14   ar
    10    14    15   ar
    11    15    16    1
    12     3     4   ar
    13     4     5   ar
    14     5     6   ar
    15     6     7   ar
    16     7    17    1
    17    17    18    3
    18    18    19    1
    19    19    20   ar
    20    20    21   ar
    21    21    22   ar
    22    22    23   ar
    23    23    24   ar
    24    24    25    1
    25     7     2   ar
    26    24    19   ar
    27    15    10   ar
@<TRIPOS>MOLECULE
*****
 25 27 0 0 0
SMALL
GASTEIGER

@<TRIPOS>ATOM
      1 C         142.1593  142.1231  162.7518 C.3     1  UNL1        0.4092
      2 N         141.4380  143.3972  162.4253 N.ar    1  UNL1       -0.1494
      3 C         140.6030  144.0753  163.4706 C.ar    1  UNL1        0.2701
      4 C         139.8818  145.3494  163.1442 C.ar    1  UNL1        0.0787
      5 C         139.9956  145.9453  161.7724 C.ar    1  UNL1        0.0136
      6 C         140.8306  145.2671  160.7270 C.ar    1  UNL1        0.0787
      7 C         141.5518  143.9931  161.0535 C.ar    1  UNL1        0.2701
      8 C         140.4892  143.4794  164.8425 C.1     1  UNL1        0.0086
      9 C         140.3753  142.8836  166.2144 C.1     1  UNL1       -0.0532
     10 C         140.2615  142.2877  167.5863 C.ar    1  UNL1        0.0527
     11 C         140.4322  143.1557  168.7975 C.ar    1  UNL1        0.0091
     12 C         140.3184  142.5598  170.1693 C.ar    1  UNL1        0.0007
     13 C         140.0339  141.0958  170.3299 C.ar    1  UNL1        0.0009
     14 C         139.8632  140.2278  169.1186 C.ar    1  UNL1        0.0120
     15 C         139.9770  140.8237  167.7468 C.ar    1  UNL1        0.0653
     16 CL        139.8063  139.9556  166.5354 Cl      1  UNL1       -0.0816
     17 C         142.3869  143.3149  160.0081 C.1     1  UNL1        0.0086
     18 C         143.2218  142.6368  158.9626 C.1     1  UNL1       -0.0532
     19 C         144.0569  141.9587  157.9172 C.ar    1  UNL1        0.0527
     20 C         145.4223  142.4863  157.5894 C.ar    1  UNL1        0.0091
     21 C         146.2573  141.8082  156.5441 C.ar    1  UNL1        0.0007
     22 C         145.7270  140.6025  155.8265 C.ar    1  UNL1        0.0009
     23 C         144.3617  140.0749  156.1542 C.ar    1  UNL1        0.0120
     24 C         143.5266  140.7530  157.1996 C.ar    1  UNL1        0.0653
     25 CL        142.1612  140.2253  157.5274 Cl      1  UNL1       -0.0816
@<TRIPOS>UNITY_ATOM_ATTR
2 1
charge 1
@<TRIPOS>BOND
     1     1     2    1
     2     2     3   ar
     3     3     8    1
     4     8     9    3
     5     9    10    1
     6    10    11   ar
     7    11    12   ar
     8    12    13   ar
     9    13    14   ar
    10    14    15   ar
    11    15    16    1
    12     3     4   ar
    13     4     5   ar
    14     5     6   ar
    15     6     7   ar
    16     7    17    1
    17    17    18    3
    18    18    19    1
    19    19    20   ar
    20    20    21   ar
    21    21    22   ar
    22    22    23   ar
    23    23    24   ar
    24    24    25    1
    25     7     2   ar
    26    24    19   ar
    27    15    10   ar
@<TRIPOS>MOLECULE
*****
 25 27 0 0 0
SMALL
GASTEIGER

@<TRIPOS>ATOM
      1 C         140.1608  141.9312  163.2942 C.3     1  UNL1        0.4092
      2 N         139.5478  140.6177  162.9081 N.ar    1  UNL1       -0.1494
      3 C         139.3889  139.5341  163.9330 C.ar    1  UNL1        0.2701
      4 C         138.7759  138.2206  163.5470 C.ar    1  UNL1        0.0787
      5 C         138.3217  137.9908  162.1360 C.ar    1  UNL1        0.0136
      6 C         138.4805  139.0744  161.1111 C.ar    1  UNL1        0.0787
      7 C         139.0935  140.3879  161.4972 C.ar    1  UNL1        0.2701
      8 C         139.8432  139.7639  165.3441 C.1     1  UNL1        0.0086
      9 C         140.2973  139.9937  166.7550 C.1     1  UNL1       -0.0532
     10 C         140.7515  140.2235  168.1661 C.ar    1  UNL1        0.0527
     11 C         139.8580  140.9406  169.1342 C.ar    1  UNL1        0.0091
     12 C         140.3122  141.1703  170.5452 C.ar    1  UNL1        0.0007
     13 C         141.6600  140.6830  170.9880 C.ar    1  UNL1        0.0009
     14 C         142.5535  139.9660  170.0198 C.ar    1  UNL1        0.0120
     15 C         142.0993  139.7362  168.6089 C.ar    1  UNL1        0.0653
     16 CL        142.9928  139.0191  167.6406 Cl      1  UNL1       -0.0816
     17 C         139.2523  141.4715  160.4722 C.1     1  UNL1        0.0086
     18 C         139.4111  142.5552  159.4473 C.1     1  UNL1       -0.0532
     19 C         139.5699  143.6388  158.4223 C.ar    1  UNL1        0.0527
     20 C         139.0929  143.4180  157.0174 C.ar    1  UNL1        0.0091
     21 C         139.2517  144.5016  155.9924 C.ar    1  UNL1        0.0007
     22 C         139.8875  145.8059  156.3723 C.ar    1  UNL1        0.0009
     23 C         140.3645  146.0267  157.7772 C.ar    1  UNL1        0.0120
     24 C         140.2057  144.9432  158.8022 C.ar    1  UNL1        0.0653
     25 CL        140.6828  145.1639  160.2071 Cl      1  UNL1       -0.0816
@<TRIPOS>UNITY_ATOM_ATTR
2 1
charge 1
@<TRIPOS>BOND
     1     1     2    1
     2     2     3   ar
     3     3     8    1
     4     8     9    3
     5     9    10    1
     6    10    11   ar
     7    11    12   ar
     8    12    13   ar
     9    13    14   ar
    10    14    15   ar
    11    15    16    1
    12     3     4   ar
    13     4     5   ar
    14     5     6   ar
    15     6     7   ar
    16     7    17    1
    17    17    18    3
    18    18    19    1
    19    19    20   ar
    20    20    21   ar
    21    21    22   ar
    22    22    23   ar
    23    23    24   ar
    24    24    25    1
    25     7     2   ar
    26    24    19   ar
    27    15    10   ar
@<TRIPOS>MOLECULE
*****
 25 27 0 0 0
SMALL
GASTEIGER

@<TRIPOS>ATOM
      1 C         139.7804  142.0497  162.9301 C.3     1  UNL1        0.4092
      2 N         139.3842  140.6037  162.8854 N.ar    1  UNL1       -0.1494
      3 C         138.8471  140.0122  161.6159 C.ar    1  UNL1        0.2701
      4 C         138.4509  138.5661  161.5711 C.ar    1  UNL1        0.0787
      5 C         138.5918  137.7116  162.7958 C.ar    1  UNL1        0.0136
      6 C         139.1289  138.3031  164.0653 C.ar    1  UNL1        0.0787
      7 C         139.5251  139.7492  164.1100 C.ar    1  UNL1        0.2701
      8 C         138.7062  140.8667  160.3911 C.1     1  UNL1        0.0086
      9 C         138.5654  141.7211  159.1664 C.1     1  UNL1       -0.0532
     10 C         138.4245  142.5756  157.9416 C.ar    1  UNL1        0.0527
     11 C         137.2441  142.3962  157.0336 C.ar    1  UNL1        0.0091
     12 C         137.1033  143.2507  155.8089 C.ar    1  UNL1        0.0007
     13 C         138.1428  144.2846  155.4922 C.ar    1  UNL1        0.0009
     14 C         139.3232  144.4641  156.4001 C.ar    1  UNL1        0.0120
     15 C         139.4641  143.6096  157.6248 C.ar    1  UNL1        0.0653
     16 CL        140.6445  143.7890  158.5329 Cl      1  UNL1       -0.0816
     17 C         140.0622  140.3407  165.3796 C.1     1  UNL1        0.0086
     18 C         140.5993  140.9322  166.6491 C.1     1  UNL1       -0.0532
     19 C         141.1364  141.5237  167.9186 C.ar    1  UNL1        0.0527
     20 C         140.5763  142.8135  168.4408 C.ar    1  UNL1        0.0091
     21 C         141.1134  143.4050  169.7102 C.ar    1  UNL1        0.0007
     22 C         142.2105  142.7067  170.4576 C.ar    1  UNL1        0.0009
     23 C         142.7706  141.4169  169.9355 C.ar    1  UNL1        0.0120
     24 C         142.2336  140.8253  168.6660 C.ar    1  UNL1        0.0653
     25 CL        142.7936  139.5355  168.1439 Cl      1  UNL1       -0.0816
@<TRIPOS>UNITY_ATOM_ATTR
2 1
charge 1
@<TRIPOS>BOND
     1     1     2    1
     2     2     3   ar
     3     3     8    1
     4     8     9    3
     5     9    10    1
     6    10    11   ar
     7    11    12   ar
     8    12    13   ar
     9    13    14   ar
    10    14    15   ar
    11    15    16    1
    12     3     4   ar
    13     4     5   ar
    14     5     6   ar
    15     6     7   ar
    16     7    17    1
    17    17    18    3
    18    18    19    1
    19    19    20   ar
    20    20    21   ar
    21    21    22   ar
    22    22    23   ar
    23    23    24   ar
    24    24    25    1
    25     7     2   ar
    26    24    19   ar
    27    15    10   ar
@<TRIPOS>MOLECULE
*****
 25 27 0 0 0
SMALL
GASTEIGER

@<TRIPOS>ATOM
      1 C         142.6762  138.1588  161.0324 C.3     1  UNL1        0.4092
      2 N         143.1317  139.3925  160.3109 N.ar    1  UNL1       -0.1494
      3 C         143.2772  139.3777  158.8181 C.ar    1  UNL1        0.2701
      4 C         143.7328  140.6114  158.0967 C.ar    1  UNL1        0.0787
      5 C         144.0429  141.8599  158.8680 C.ar    1  UNL1        0.0136
      6 C         143.8974  141.8747  160.3609 C.ar    1  UNL1        0.0787
      7 C         143.4418  140.6410  161.0823 C.ar    1  UNL1        0.2701
      8 C         142.9671  138.1292  158.0467 C.1     1  UNL1        0.0086
      9 C         142.6570  136.8807  157.2752 C.1     1  UNL1       -0.0532
     10 C         142.3469  135.6322  156.5037 C.ar    1  UNL1        0.0527
     11 C         141.5041  135.7058  155.2651 C.ar    1  UNL1        0.0091
     12 C         141.1941  134.4573  154.4937 C.ar    1  UNL1        0.0007
     13 C         141.7268  133.1352  154.9610 C.ar    1  UNL1        0.0009
     14 C         142.5696  133.0616  156.1996 C.ar    1  UNL1        0.0120
     15 C         142.8796  134.3101  156.9710 C.ar    1  UNL1        0.0653
     16 CL        143.7225  134.2366  158.2097 Cl      1  UNL1       -0.0816
     17 C         143.2963  140.6559  162.5752 C.1     1  UNL1        0.0086
     18 C         143.1509  140.6708  164.0680 C.1     1  UNL1       -0.0532
     19 C         143.0054  140.6856  165.5610 C.ar    1  UNL1        0.0527
     20 C         143.0163  141.9894  166.3026 C.ar    1  UNL1        0.0091
     21 C         142.8709  142.0043  167.7954 C.ar    1  UNL1        0.0007
     22 C         142.7145  140.7154  168.5466 C.ar    1  UNL1        0.0009
     23 C         142.7035  139.4117  167.8049 C.ar    1  UNL1        0.0120
     24 C         142.8490  139.3968  166.3121 C.ar    1  UNL1        0.0653
     25 CL        142.8380  138.0930  165.5705 Cl      1  UNL1       -0.0816
@<TRIPOS>UNITY_ATOM_ATTR
2 1
charge 1
@<TRIPOS>BOND
     1     1     2    1
     2     2     3   ar
     3     3     8    1
     4     8     9    3
     5     9    10    1
     6    10    11   ar
     7    11    12   ar
     8    12    13   ar
     9    13    14   ar
    10    14    15   ar
    11    15    16    1
    12     3     4   ar
    13     4     5   ar
    14     5     6   ar
    15     6     7   ar
    16     7    17    1
    17    17    18    3
    18    18    19    1
    19    19    20   ar
    20    20    21   ar
    21    21    22   ar
    22    22    23   ar
    23    23    24   ar
    24    24    25    1
    25     7     2   ar
    26    24    19   ar
    27    15    10   ar
@<TRIPOS>MOLECULE
*****
 25 27 0 0 0
SMALL
GASTEIGER

@<TRIPOS>ATOM
      1 C         141.3547  145.8233  158.3747 C.3     1  UNL1        0.4092
      2 N         140.5730  144.6848  157.7892 N.ar    1  UNL1       -0.1494
      3 C         140.7008  143.3088  158.3725 C.ar    1  UNL1        0.2701
      4 C         139.9191  142.1704  157.7870 C.ar    1  UNL1        0.0787
      5 C         139.0096  142.4078  156.6181 C.ar    1  UNL1        0.0136
      6 C         138.8818  143.7838  156.0348 C.ar    1  UNL1        0.0787
      7 C         139.6634  144.9223  156.6203 C.ar    1  UNL1        0.2701
      8 C         141.6104  143.0713  159.5415 C.1     1  UNL1        0.0086
      9 C         142.5199  142.8337  160.7103 C.1     1  UNL1       -0.0532
     10 C         143.4295  142.5962  161.8792 C.ar    1  UNL1        0.0527
     11 C         144.3103  141.3824  161.9096 C.ar    1  UNL1        0.0091
     12 C         145.2198  141.1449  163.0785 C.ar    1  UNL1        0.0007
     13 C         145.2485  142.1212  164.2170 C.ar    1  UNL1        0.0009
     14 C         144.3677  143.3349  164.1866 C.ar    1  UNL1        0.0120
     15 C         143.4582  143.5724  163.0177 C.ar    1  UNL1        0.0653
     16 CL        142.5773  144.7862  162.9873 Cl      1  UNL1       -0.0816
     17 C         139.5356  146.2983  156.0369 C.1     1  UNL1        0.0086
     18 C         139.4077  147.6742  155.4535 C.1     1  UNL1       -0.0532
     19 C         139.2798  149.0503  154.8701 C.ar    1  UNL1        0.0527
     20 C         139.7442  149.3169  153.4689 C.ar    1  UNL1        0.0091
     21 C         139.6164  150.6928  152.8855 C.ar    1  UNL1        0.0007
     22 C         139.0242  151.8021  153.7032 C.ar    1  UNL1        0.0009
     23 C         138.5598  151.5354  155.1044 C.ar    1  UNL1        0.0120
     24 C         138.6876  150.1595  155.6878 C.ar    1  UNL1        0.0653
     25 CL        138.2232  149.8929  157.0889 Cl      1  UNL1       -0.0816
@<TRIPOS>UNITY_ATOM_ATTR
2 1
charge 1
@<TRIPOS>BOND
     1     1     2    1
     2     2     3   ar
     3     3     8    1
     4     8     9    3
     5     9    10    1
     6    10    11   ar
     7    11    12   ar
     8    12    13   ar
     9    13    14   ar
    10    14    15   ar
    11    15    16    1
    12     3     4   ar
    13     4     5   ar
    14     5     6   ar
    15     6     7   ar
    16     7    17    1
    17    17    18    3
    18    18    19    1
    19    19    20   ar
    20    20    21   ar
    21    21    22   ar
    22    22    23   ar
    23    23    24   ar
    24    24    25    1
    25     7     2   ar
    26    24    19   ar
    27    15    10   ar
@<TRIPOS>MOLECULE
*****
 25 27 0 0 0
SMALL
GASTEIGER

@<TRIPOS>ATOM
      1 C         142.7192  138.1788  161.2383 C.3     1  UNL1        0.4092
      2 N         143.0923  139.4303  160.5003 N.ar    1  UNL1       -0.1494
      3 C         143.3442  140.7005  161.2572 C.ar    1  UNL1        0.2701
      4 C         143.7173  141.9520  160.5192 C.ar    1  UNL1        0.0787
      5 C         143.8386  141.9332  159.0243 C.ar    1  UNL1        0.0136
      6 C         143.5868  140.6630  158.2674 C.ar    1  UNL1        0.0787
      7 C         143.2136  139.4115  159.0053 C.ar    1  UNL1        0.2701
      8 C         143.2229  140.7194  162.7523 C.1     1  UNL1        0.0086
      9 C         143.1016  140.7381  164.2472 C.1     1  UNL1       -0.0532
     10 C         142.9803  140.7570  165.7422 C.ar    1  UNL1        0.0527
     11 C         143.0313  142.0606  166.4824 C.ar    1  UNL1        0.0091
     12 C         142.9100  142.0793  167.9774 C.ar    1  UNL1        0.0007
     13 C         142.7378  140.7945  168.7321 C.ar    1  UNL1        0.0009
     14 C         142.6868  139.4909  167.9919 C.ar    1  UNL1        0.0120
     15 C         142.8081  139.4721  166.4969 C.ar    1  UNL1        0.0653
     16 CL        142.7572  138.1685  165.7566 Cl      1  UNL1       -0.0816
     17 C         142.9618  138.1412  158.2483 C.1     1  UNL1        0.0086
     18 C         142.7100  136.8710  157.4913 C.1     1  UNL1       -0.0532
     19 C         142.4582  135.6007  156.7342 C.ar    1  UNL1        0.0527
     20 C         143.1786  134.3427  157.1194 C.ar    1  UNL1        0.0091
     21 C         142.9269  133.0725  156.3625 C.ar    1  UNL1        0.0007
     22 C         141.9547  133.0603  155.2203 C.ar    1  UNL1        0.0009
     23 C         141.2342  134.3183  154.8351 C.ar    1  UNL1        0.0120
     24 C         141.4860  135.5885  155.5921 C.ar    1  UNL1        0.0653
     25 CL        140.7656  136.8465  155.2068 Cl      1  UNL1       -0.0816
@<TRIPOS>UNITY_ATOM_ATTR
2 1
charge 1
@<TRIPOS>BOND
     1     1     2    1
     2     2     3   ar
     3     3     8    1
     4     8     9    3
     5     9    10    1
     6    10    11   ar
     7    11    12   ar
     8    12    13   ar
     9    13    14   ar
    10    14    15   ar
    11    15    16    1
    12     3     4   ar
    13     4     5   ar
    14     5     6   ar
    15     6     7   ar
    16     7    17    1
    17    17    18    3
    18    18    19    1
    19    19    20   ar
    20    20    21   ar
    21    21    22   ar
    22    22    23   ar
    23    23    24   ar
    24    24    25    1
    25     7     2   ar
    26    24    19   ar
    27    15    10   ar
@<TRIPOS>MOLECULE
*****
 25 27 0 0 0
SMALL
GASTEIGER

@<TRIPOS>ATOM
      1 C         142.3525  140.4153  163.4679 C.3     1  UNL1        0.4092
      2 N         142.9191  141.7926  163.2888 N.ar    1  UNL1       -0.1494
      3 C         142.9858  142.7336  164.4550 C.ar    1  UNL1        0.2701
      4 C         143.5525  144.1109  164.2759 C.ar    1  UNL1        0.0787
      5 C         144.0524  144.5471  162.9307 C.ar    1  UNL1        0.0136
      6 C         143.9857  143.6061  161.7645 C.ar    1  UNL1        0.0787
      7 C         143.4191  142.2288  161.9436 C.ar    1  UNL1        0.2701
      8 C         142.4859  142.2974  165.8003 C.1     1  UNL1        0.0086
      9 C         141.9859  141.8612  167.1456 C.1     1  UNL1       -0.0532
     10 C         141.4860  141.4250  168.4909 C.ar    1  UNL1        0.0527
     11 C         140.1292  140.7984  168.6198 C.ar    1  UNL1        0.0091
     12 C         139.6293  140.3623  169.9651 C.ar    1  UNL1        0.0007
     13 C         140.4862  140.5527  171.1814 C.ar    1  UNL1        0.0009
     14 C         141.8429  141.1792  171.0525 C.ar    1  UNL1        0.0120
     15 C         142.3428  141.6154  169.7073 C.ar    1  UNL1        0.0653
     16 CL        143.6996  142.2420  169.5783 Cl      1  UNL1       -0.0816
     17 C         143.3524  141.2877  160.7773 C.1     1  UNL1        0.0086
     18 C         143.2857  140.3468  159.6111 C.1     1  UNL1       -0.0532
     19 C         143.2190  139.4057  158.4449 C.ar    1  UNL1        0.0527
     20 C         142.6590  138.0260  158.6256 C.ar    1  UNL1        0.0091
     21 C         142.5923  137.0850  157.4594 C.ar    1  UNL1        0.0007
     22 C         143.0856  137.5237  156.1126 C.ar    1  UNL1        0.0009
     23 C         143.6456  138.9034  155.9319 C.ar    1  UNL1        0.0120
     24 C         143.7123  139.8445  157.0980 C.ar    1  UNL1        0.0653
     25 CL        144.2724  141.2242  156.9173 Cl      1  UNL1       -0.0816
@<TRIPOS>UNITY_ATOM_ATTR
2 1
charge 1
@<TRIPOS>BOND
     1     1     2    1
     2     2     3   ar
     3     3     8    1
     4     8     9    3
     5     9    10    1
     6    10    11   ar
     7    11    12   ar
     8    12    13   ar
     9    13    14   ar
    10    14    15   ar
    11    15    16    1
    12     3     4   ar
    13     4     5   ar
    14     5     6   ar
    15     6     7   ar
    16     7    17    1
    17    17    18    3
    18    18    19    1
    19    19    20   ar
    20    20    21   ar
    21    21    22   ar
    22    22    23   ar
    23    23    24   ar
    24    24    25    1
    25     7     2   ar
    26    24    19   ar
    27    15    10   ar
@<TRIPOS>MOLECULE
*****
 25 27 0 0 0
SMALL
GASTEIGER

@<TRIPOS>ATOM
      1 C         141.4279  145.8755  158.3850 C.3     1  UNL1        0.4092
      2 N         140.5819  144.7371  157.8968 N.ar    1  UNL1       -0.1494
      3 C         139.6502  144.9381  156.7385 C.ar    1  UNL1        0.2701
      4 C         138.8042  143.7997  156.2503 C.ar    1  UNL1        0.0787
      5 C         138.8899  142.4604  156.9202 C.ar    1  UNL1        0.0136
      6 C         139.8216  142.2595  158.0784 C.ar    1  UNL1        0.0787
      7 C         140.6676  143.3978  158.5667 C.ar    1  UNL1        0.2701
      8 C         139.5644  146.2775  156.0685 C.1     1  UNL1        0.0086
      9 C         139.4787  147.6167  155.3986 C.1     1  UNL1       -0.0532
     10 C         139.3929  148.9561  154.7286 C.ar    1  UNL1        0.0527
     11 C         139.8961  149.1266  153.3258 C.ar    1  UNL1        0.0091
     12 C         139.8104  150.4659  152.6559 C.ar    1  UNL1        0.0007
     13 C         139.2214  151.6347  153.3887 C.ar    1  UNL1        0.0009
     14 C         138.7182  151.4642  154.7914 C.ar    1  UNL1        0.0120
     15 C         138.8039  150.1249  155.4614 C.ar    1  UNL1        0.0653
     16 CL        138.3007  149.9543  156.8641 Cl      1  UNL1       -0.0816
     17 C         141.5993  143.1968  159.7250 C.1     1  UNL1        0.0086
     18 C         142.5310  142.9958  160.8832 C.1     1  UNL1       -0.0532
     19 C         143.4627  142.7948  162.0415 C.ar    1  UNL1        0.0527
     20 C         144.6387  141.8734  161.9069 C.ar    1  UNL1        0.0091
     21 C         145.5704  141.6724  163.0651 C.ar    1  UNL1        0.0007
     22 C         145.3261  142.3928  164.3579 C.ar    1  UNL1        0.0009
     23 C         144.1502  143.3142  164.4925 C.ar    1  UNL1        0.0120
     24 C         143.2185  143.5152  163.3343 C.ar    1  UNL1        0.0653
     25 CL        142.0425  144.4367  163.4688 Cl      1  UNL1       -0.0816
@<TRIPOS>UNITY_ATOM_ATTR
2 1
charge 1
@<TRIPOS>BOND
     1     1     2    1
     2     2     3   ar
     3     3     8    1
     4     8     9    3
     5     9    10    1
     6    10    11   ar
     7    11    12   ar
     8    12    13   ar
     9    13    14   ar
    10    14    15   ar
    11    15    16    1
    12     3     4   ar
    13     4     5   ar
    14     5     6   ar
    15     6     7   ar
    16     7    17    1
    17    17    18    3
    18    18    19    1
    19    19    20   ar
    20    20    21   ar
    21    21    22   ar
    22    22    23   ar
    23    23    24   ar
    24    24    25    1
    25     7     2   ar
    26    24    19   ar
    27    15    10   ar
