@<TRIPOS>MOLECULE
*****
 31 35 0 0 0
SMALL
GASTEIGER

@<TRIPOS>ATOM
      1 C         141.5664  142.2980  163.5284 C.ar    1  UNL1        0.1065
      2 N         142.9273  141.9674  162.9912 N.ar    1  UNL1       -0.1679
      3 N         143.1918  142.8618  161.8164 N.ar    1  UNL1       -0.2339
      4 C         141.9943  143.7452  161.6275 C.ar    1  UNL1        0.1653
      5 N         141.6888  144.8218  160.6287 N.ar    1  UNL1       -0.2050
      6 C         140.3787  145.5500  160.6880 C.ar    1  UNL1        0.2014
      7 N         139.3741  145.2015  161.7461 N.ar    1  UNL1       -0.2093
      8 C         139.6796  144.1249  162.7448 C.ar    1  UNL1        0.1316
      9 N         138.6751  143.7764  163.8029 N.pl3   1  UNL1       -0.3425
     10 C         140.9897  143.3967  162.6855 C.ar    1  UNL1        0.0860
     11 H         137.8153  144.2543  163.8418 H       1  UNL1        0.1437
     12 H         138.8756  143.0698  164.4584 H       1  UNL1        0.1437
     13 C         139.0310  140.2846  169.5920 C.ar    1  UNL1        0.1386
     14 C         139.8314  141.5382  169.7863 C.ar    1  UNL1        0.0369
     15 C         140.4985  142.1916  168.6125 C.ar    1  UNL1        0.0031
     16 C         140.3653  141.5914  167.2443 C.ar    1  UNL1        0.0002
     17 C         141.0325  142.2448  166.0704 C.ar    1  UNL1        0.0016
     18 C         140.8992  141.6446  164.7022 C.ar    1  UNL1        0.0195
     19 C         140.0988  140.3909  164.5079 C.ar    1  UNL1        0.0016
     20 C         139.4317  139.7375  165.6817 C.ar    1  UNL1        0.0001
     21 C         139.5649  140.3378  167.0500 C.ar    1  UNL1        0.0030
     22 C         138.8978  139.6844  168.2238 C.ar    1  UNL1        0.0369
     23 O         138.3638  139.6312  170.7659 O.3     1  UNL1       -0.4755
     24 C         136.3138  138.2574  171.5784 C.3     1  UNL1        0.0512
     25 C         136.8901  139.3537  170.7322 C.3     1  UNL1        0.2055
     26 C         144.4354  142.8713  160.9778 C.3     1  UNL1        0.1318
     27 C         144.4305  142.2294  159.6220 C.3     1  UNL1        0.0559
     28 C         145.0493  142.5512  158.2940 C.3     1  UNL1        0.0719
     29 N         144.4237  141.3218  157.7047 N.3     1  UNL1       -0.2973
     30 C         143.8050  141.0000  159.0327 C.3     1  UNL1        0.0719
     31 H         145.0963  140.6274  157.3795 H       1  UNL1        0.1233
@<TRIPOS>BOND
     1    24    25    1
     2    25    23    1
     3    23    13    1
     4    13    14   ar
     5    14    15   ar
     6    15    16   ar
     7    16    17   ar
     8    17    18   ar
     9    18     1    1
    10     1     2   ar
    11     2     3   ar
    12     3    26    1
    13    26    27    1
    14    27    28    1
    15    28    29    1
    16    29    30    1
    17     3     4   ar
    18     4     5   ar
    19     5     6   ar
    20     6     7   ar
    21     7     8   ar
    22     8     9    1
    23     8    10   ar
    24    18    19   ar
    25    19    20   ar
    26    20    21   ar
    27    21    22   ar
    28    22    13   ar
    29    21    16   ar
    30    10     1   ar
    31    30    27    1
    32    10     4   ar
    33    29    31    1
    34     9    11    1
    35     9    12    1
@<TRIPOS>MOLECULE
*****
 31 35 0 0 0
SMALL
GASTEIGER

@<TRIPOS>ATOM
      1 C         140.1690  142.4192  165.7456 C.ar    1  UNL1        0.1065
      2 N         140.8842  142.7667  167.0175 N.ar    1  UNL1       -0.1679
      3 N         140.5276  141.7351  168.0465 N.ar    1  UNL1       -0.2339
      4 C         139.5921  140.7501  167.4105 C.ar    1  UNL1        0.1653
      5 N         138.9134  139.5228  167.9425 N.ar    1  UNL1       -0.2050
      6 C         138.0130  138.7182  167.0524 C.ar    1  UNL1        0.2014
      7 N         137.7914  139.1410  165.6304 N.ar    1  UNL1       -0.2093
      8 C         138.4701  140.3683  165.0984 C.ar    1  UNL1        0.1316
      9 N         138.2485  140.7911  163.6763 N.pl3   1  UNL1       -0.3425
     10 C         139.3704  141.1728  165.9884 C.ar    1  UNL1        0.0860
     11 H         137.6576  140.2631  163.0922 H       1  UNL1        0.1437
     12 H         138.6940  141.5967  163.3272 H       1  UNL1        0.1437
     13 C         141.4089  145.0504  159.5174 C.ar    1  UNL1        0.1386
     14 C         142.2940  143.8586  159.7321 C.ar    1  UNL1        0.0369
     15 C         142.2231  143.0940  161.0206 C.ar    1  UNL1        0.0031
     16 C         141.2670  143.5212  162.0945 C.ar    1  UNL1        0.0002
     17 C         141.1961  142.7566  163.3831 C.ar    1  UNL1        0.0016
     18 C         140.2400  143.1838  164.4570 C.ar    1  UNL1        0.0195
     19 C         139.3548  144.3757  164.2424 C.ar    1  UNL1        0.0016
     20 C         139.4257  145.1403  162.9538 C.ar    1  UNL1        0.0001
     21 C         140.3819  144.7130  161.8799 C.ar    1  UNL1        0.0030
     22 C         140.4528  145.4776  160.5913 C.ar    1  UNL1        0.0369
     23 O         141.4798  145.8150  158.2289 O.3     1  UNL1       -0.4755
     24 C         139.5286  146.7092  156.7649 C.3     1  UNL1        0.0512
     25 C         140.4450  145.5915  157.1662 C.3     1  UNL1        0.2055
     26 C         141.0201  141.6955  169.4627 C.3     1  UNL1        0.1318
     27 C         142.3574  142.2805  169.8083 C.3     1  UNL1        0.0559
     28 C         143.7552  142.1098  169.2917 C.3     1  UNL1        0.0719
     29 N         144.2487  143.1076  170.2971 N.3     1  UNL1       -0.2973
     30 C         142.8508  143.2783  170.8138 C.3     1  UNL1        0.0719
     31 H         144.6464  143.9519  169.8854 H       1  UNL1        0.1233
@<TRIPOS>BOND
     1    24    25    1
     2    25    23    1
     3    23    13    1
     4    13    14   ar
     5    14    15   ar
     6    15    16   ar
     7    16    17   ar
     8    17    18   ar
     9    18     1    1
    10     1     2   ar
    11     2     3   ar
    12     3    26    1
    13    26    27    1
    14    27    28    1
    15    28    29    1
    16    29    30    1
    17     3     4   ar
    18     4     5   ar
    19     5     6   ar
    20     6     7   ar
    21     7     8   ar
    22     8     9    1
    23     8    10   ar
    24    18    19   ar
    25    19    20   ar
    26    20    21   ar
    27    21    22   ar
    28    22    13   ar
    29    21    16   ar
    30    10     1   ar
    31    30    27    1
    32    10     4   ar
    33    29    31    1
    34     9    11    1
    35     9    12    1
@<TRIPOS>MOLECULE
*****
 31 35 0 0 0
SMALL
GASTEIGER

@<TRIPOS>ATOM
      1 C         140.3715  138.8560  161.1826 C.ar    1  UNL1        0.1065
      2 N         141.6430  138.3151  160.5990 N.ar    1  UNL1       -0.1679
      3 N         141.5637  138.4522  159.1074 N.ar    1  UNL1       -0.2339
      4 C         140.2430  139.0779  158.7691 C.ar    1  UNL1        0.1653
      5 N         139.6162  139.4527  157.4589 N.ar    1  UNL1       -0.2050
      6 C         138.2524  140.0770  157.4312 C.ar    1  UNL1        0.2014
      7 N         137.5157  140.3265  158.7138 N.ar    1  UNL1       -0.2093
      8 C         138.1425  139.9517  160.0239 C.ar    1  UNL1        0.1316
      9 N         137.4057  140.2012  161.3065 N.pl3   1  UNL1       -0.3425
     10 C         139.5062  139.3275  160.0516 C.ar    1  UNL1        0.0860
     11 H         136.5107  140.6110  161.2883 H       1  UNL1        0.1437
     12 H         137.8172  139.9553  162.1664 H       1  UNL1        0.1437
     13 C         139.4320  140.2613  167.8453 C.ar    1  UNL1        0.1386
     14 C         140.2205  141.3712  167.2159 C.ar    1  UNL1        0.0369
     15 C         140.5661  141.3121  165.7574 C.ar    1  UNL1        0.0031
     16 C         140.1232  140.1431  164.9284 C.ar    1  UNL1        0.0002
     17 C         140.4688  140.0840  163.4700 C.ar    1  UNL1        0.0016
     18 C         140.0259  138.9151  162.6410 C.ar    1  UNL1        0.0195
     19 C         139.2373  137.8051  163.2705 C.ar    1  UNL1        0.0016
     20 C         138.8917  137.8641  164.7289 C.ar    1  UNL1        0.0001
     21 C         139.3347  139.0332  165.5579 C.ar    1  UNL1        0.0030
     22 C         138.9891  139.0923  167.0163 C.ar    1  UNL1        0.0369
     23 O         139.0864  140.3203  169.3038 O.3     1  UNL1       -0.4755
     24 C         141.4719  139.5196  169.9503 C.3     1  UNL1        0.0512
     25 C         140.1573  140.1299  170.3366 C.3     1  UNL1        0.2055
     26 C         142.6194  138.0367  158.1263 C.3     1  UNL1        0.1318
     27 C         142.3870  136.8573  157.2291 C.3     1  UNL1        0.0559
     28 C         143.0380  135.5182  157.0476 C.3     1  UNL1        0.0719
     29 N         142.0584  135.1893  155.9603 N.3     1  UNL1       -0.2973
     30 C         141.4074  136.5284  156.1418 C.3     1  UNL1        0.0719
     31 H         141.4503  134.3984  156.1729 H       1  UNL1        0.1233
@<TRIPOS>BOND
     1    24    25    1
     2    25    23    1
     3    23    13    1
     4    13    14   ar
     5    14    15   ar
     6    15    16   ar
     7    16    17   ar
     8    17    18   ar
     9    18     1    1
    10     1     2   ar
    11     2     3   ar
    12     3    26    1
    13    26    27    1
    14    27    28    1
    15    28    29    1
    16    29    30    1
    17     3     4   ar
    18     4     5   ar
    19     5     6   ar
    20     6     7   ar
    21     7     8   ar
    22     8     9    1
    23     8    10   ar
    24    18    19   ar
    25    19    20   ar
    26    20    21   ar
    27    21    22   ar
    28    22    13   ar
    29    21    16   ar
    30    10     1   ar
    31    30    27    1
    32    10     4   ar
    33    29    31    1
    34     9    11    1
    35     9    12    1
@<TRIPOS>MOLECULE
*****
 31 35 0 0 0
SMALL
GASTEIGER

@<TRIPOS>ATOM
      1 C         143.4056  142.4487  161.5181 C.ar    1  UNL1        0.1065
      2 N         144.1529  141.4712  160.6601 N.ar    1  UNL1       -0.1679
      3 N         143.9537  141.8656  159.2267 N.ar    1  UNL1       -0.2339
      4 C         143.0833  143.0869  159.1987 C.ar    1  UNL1        0.1653
      5 N         142.5554  143.9174  158.0666 N.ar    1  UNL1       -0.2050
      6 C         141.6887  145.1084  158.3507 C.ar    1  UNL1        0.2014
      7 N         141.3500  145.4688  159.7669 N.ar    1  UNL1       -0.2093
      8 C         141.8779  144.6383  160.8989 C.ar    1  UNL1        0.1316
      9 N         141.5393  144.9987  162.3150 N.pl3   1  UNL1       -0.3425
     10 C         142.7445  143.4474  160.6148 C.ar    1  UNL1        0.0860
     11 H         140.9705  145.7803  162.5015 H       1  UNL1        0.1437
     12 H         141.8858  144.4536  163.0580 H       1  UNL1        0.1437
     13 C         142.0270  141.6041  168.1991 C.ar    1  UNL1        0.1386
     14 C         141.0149  140.8489  167.3896 C.ar    1  UNL1        0.0369
     15 C         141.0882  140.8668  165.8915 C.ar    1  UNL1        0.0031
     16 C         142.1736  141.6399  165.2029 C.ar    1  UNL1        0.0002
     17 C         142.2469  141.6578  163.7048 C.ar    1  UNL1        0.0016
     18 C         143.3323  142.4309  163.0162 C.ar    1  UNL1        0.0195
     19 C         144.3445  143.1861  163.8257 C.ar    1  UNL1        0.0016
     20 C         144.2712  143.1682  165.3238 C.ar    1  UNL1        0.0001
     21 C         143.1857  142.3951  166.0124 C.ar    1  UNL1        0.0030
     22 C         143.1124  142.3772  167.5105 C.ar    1  UNL1        0.0369
     23 O         141.9537  141.5863  169.6972 O.3     1  UNL1       -0.4755
     24 C         140.5037  143.7410  169.7656 C.3     1  UNL1        0.0512
     25 C         140.9756  142.4717  170.4108 C.3     1  UNL1        0.2055
     26 C         144.5245  141.1622  158.0312 C.3     1  UNL1        0.1318
     27 C         145.3262  141.9293  157.0217 C.3     1  UNL1        0.0559
     28 C         145.0722  142.4459  155.6366 C.3     1  UNL1        0.0719
     29 N         146.4598  143.0141  155.5941 N.3     1  UNL1       -0.2973
     30 C         146.7137  142.4975  156.9793 C.3     1  UNL1        0.0719
     31 H         146.4913  144.0307  155.5166 H       1  UNL1        0.1233
@<TRIPOS>BOND
     1    24    25    1
     2    25    23    1
     3    23    13    1
     4    13    14   ar
     5    14    15   ar
     6    15    16   ar
     7    16    17   ar
     8    17    18   ar
     9    18     1    1
    10     1     2   ar
    11     2     3   ar
    12     3    26    1
    13    26    27    1
    14    27    28    1
    15    28    29    1
    16    29    30    1
    17     3     4   ar
    18     4     5   ar
    19     5     6   ar
    20     6     7   ar
    21     7     8   ar
    22     8     9    1
    23     8    10   ar
    24    18    19   ar
    25    19    20   ar
    26    20    21   ar
    27    21    22   ar
    28    22    13   ar
    29    21    16   ar
    30    10     1   ar
    31    30    27    1
    32    10     4   ar
    33    29    31    1
    34     9    11    1
    35     9    12    1
@<TRIPOS>MOLECULE
*****
 31 35 0 0 0
SMALL
GASTEIGER

@<TRIPOS>ATOM
      1 C         139.3751  143.3449  160.6672 C.ar    1  UNL1        0.1065
      2 N         138.3137  142.6226  159.8914 N.ar    1  UNL1       -0.1679
      3 N         138.5008  142.9453  158.4385 N.ar    1  UNL1       -0.2339
      4 C         139.6779  143.8671  158.3163 C.ar    1  UNL1        0.1653
      5 N         140.3274  144.5135  157.1288 N.ar    1  UNL1       -0.2050
      6 C         141.5174  145.4070  157.3187 C.ar    1  UNL1        0.2014
      7 N         142.0577  145.6539  158.6961 N.ar    1  UNL1       -0.2093
      8 C         141.4081  145.0075  159.8836 C.ar    1  UNL1        0.1316
      9 N         141.9484  145.2544  161.2609 N.pl3   1  UNL1       -0.3425
     10 C         140.2182  144.1141  159.6937 C.ar    1  UNL1        0.0860
     11 H         142.7294  145.8408  161.3855 H       1  UNL1        0.1437
     12 H         141.5220  144.8302  162.0403 H       1  UNL1        0.1437
     13 C         141.0721  142.2025  167.2296 C.ar    1  UNL1        0.1386
     14 C         141.8407  141.2593  166.3523 C.ar    1  UNL1        0.0369
     15 C         141.6550  141.2992  164.8644 C.ar    1  UNL1        0.0031
     16 C         140.7007  142.2822  164.2537 C.ar    1  UNL1        0.0002
     17 C         140.5150  142.3221  162.7658 C.ar    1  UNL1        0.0016
     18 C         139.5608  143.3051  162.1551 C.ar    1  UNL1        0.0195
     19 C         138.7921  144.2483  163.0324 C.ar    1  UNL1        0.0016
     20 C         138.9778  144.2085  164.5203 C.ar    1  UNL1        0.0001
     21 C         139.9321  143.2254  165.1310 C.ar    1  UNL1        0.0030
     22 C         140.1178  143.1856  166.6189 C.ar    1  UNL1        0.0369
     23 O         141.2578  142.1627  168.7175 O.3     1  UNL1       -0.4755
     24 C         139.3498  140.7688  169.7976 C.3     1  UNL1        0.0512
     25 C         140.0631  142.0764  169.6204 C.3     1  UNL1        0.2055
     26 C         137.6589  142.4358  157.3066 C.3     1  UNL1        0.1318
     27 C         137.9301  141.0819  156.7205 C.3     1  UNL1        0.0559
     28 C         138.8899  139.9690  157.0209 C.3     1  UNL1        0.0719
     29 N         138.3137  139.1673  155.8917 N.3     1  UNL1       -0.2973
     30 C         137.3540  140.2802  155.5912 C.3     1  UNL1        0.0719
     31 H         137.8659  138.2986  156.1837 H       1  UNL1        0.1233
@<TRIPOS>BOND
     1    24    25    1
     2    25    23    1
     3    23    13    1
     4    13    14   ar
     5    14    15   ar
     6    15    16   ar
     7    16    17   ar
     8    17    18   ar
     9    18     1    1
    10     1     2   ar
    11     2     3   ar
    12     3    26    1
    13    26    27    1
    14    27    28    1
    15    28    29    1
    16    29    30    1
    17     3     4   ar
    18     4     5   ar
    19     5     6   ar
    20     6     7   ar
    21     7     8   ar
    22     8     9    1
    23     8    10   ar
    24    18    19   ar
    25    19    20   ar
    26    20    21   ar
    27    21    22   ar
    28    22    13   ar
    29    21    16   ar
    30    10     1   ar
    31    30    27    1
    32    10     4   ar
    33    29    31    1
    34     9    11    1
    35     9    12    1
@<TRIPOS>MOLECULE
*****
 31 35 0 0 0
SMALL
GASTEIGER

@<TRIPOS>ATOM
      1 C         140.7845  141.7399  165.7237 C.ar    1  UNL1        0.1065
      2 N         141.4812  142.0942  167.0040 N.ar    1  UNL1       -0.1679
      3 N         140.8533  141.2978  168.1092 N.ar    1  UNL1       -0.2339
      4 C         139.7686  140.4512  167.5119 C.ar    1  UNL1        0.1653
      5 N         138.8140  139.4668  168.1200 N.ar    1  UNL1       -0.2050
      6 C         137.8170  138.7556  167.2538 C.ar    1  UNL1        0.2014
      7 N         137.7745  139.0289  165.7795 N.ar    1  UNL1       -0.2093
      8 C         138.7291  140.0133  165.1714 C.ar    1  UNL1        0.1316
      9 N         138.6866  140.2865  163.6971 N.pl3   1  UNL1       -0.3425
     10 C         139.7260  140.7244  166.0376 C.ar    1  UNL1        0.0860
     11 H         138.0322  139.8198  163.1286 H       1  UNL1        0.1437
     12 H         139.3131  140.9326  163.2980 H       1  UNL1        0.1437
     13 C         141.2782  145.1979  159.8035 C.ar    1  UNL1        0.1386
     14 C         140.2330  145.8439  160.6638 C.ar    1  UNL1        0.0369
     15 C         139.9253  145.2816  162.0199 C.ar    1  UNL1        0.0031
     16 C         140.6627  144.0731  162.5157 C.ar    1  UNL1        0.0002
     17 C         140.3549  143.5107  163.8718 C.ar    1  UNL1        0.0016
     18 C         141.0923  142.3023  164.3676 C.ar    1  UNL1        0.0195
     19 C         142.1376  141.6562  163.5073 C.ar    1  UNL1        0.0016
     20 C         142.4453  142.2186  162.1512 C.ar    1  UNL1        0.0001
     21 C         141.7078  143.4271  161.6554 C.ar    1  UNL1        0.0030
     22 C         142.0156  143.9895  160.2993 C.ar    1  UNL1        0.0369
     23 O         141.5860  145.7603  158.4474 O.3     1  UNL1       -0.4755
     24 C         139.7925  144.2497  157.3286 C.3     1  UNL1        0.0512
     25 C         140.6875  145.4528  157.2864 C.3     1  UNL1        0.2055
     26 C         141.2418  141.3403  169.5573 C.3     1  UNL1        0.1318
     27 C         142.4092  142.1736  169.9964 C.3     1  UNL1        0.0559
     28 C         143.8954  142.1009  169.8064 C.3     1  UNL1        0.0719
     29 N         144.0602  143.3521  170.6173 N.3     1  UNL1       -0.2973
     30 C         142.5741  143.4248  170.8072 C.3     1  UNL1        0.0719
     31 H         144.4524  144.1368  170.0970 H       1  UNL1        0.1233
@<TRIPOS>BOND
     1    24    25    1
     2    25    23    1
     3    23    13    1
     4    13    14   ar
     5    14    15   ar
     6    15    16   ar
     7    16    17   ar
     8    17    18   ar
     9    18     1    1
    10     1     2   ar
    11     2     3   ar
    12     3    26    1
    13    26    27    1
    14    27    28    1
    15    28    29    1
    16    29    30    1
    17     3     4   ar
    18     4     5   ar
    19     5     6   ar
    20     6     7   ar
    21     7     8   ar
    22     8     9    1
    23     8    10   ar
    24    18    19   ar
    25    19    20   ar
    26    20    21   ar
    27    21    22   ar
    28    22    13   ar
    29    21    16   ar
    30    10     1   ar
    31    30    27    1
    32    10     4   ar
    33    29    31    1
    34     9    11    1
    35     9    12    1
@<TRIPOS>MOLECULE
*****
 31 35 0 0 0
SMALL
GASTEIGER

@<TRIPOS>ATOM
      1 C         139.6799  139.9437  162.0168 C.ar    1  UNL1        0.1065
      2 N         139.9255  138.7595  161.1295 N.ar    1  UNL1       -0.1679
      3 N         139.8920  139.2318  159.7062 N.ar    1  UNL1       -0.2339
      4 C         139.6256  140.7080  159.7138 C.ar    1  UNL1        0.1653
      5 N         139.4855  141.7083  158.6049 N.ar    1  UNL1       -0.2050
      6 C         139.2143  143.1488  158.9241 C.ar    1  UNL1        0.2014
      7 N         139.0832  143.5887  160.3521 N.ar    1  UNL1       -0.2093
      8 C         139.2233  142.5884  161.4610 C.ar    1  UNL1        0.1316
      9 N         139.0922  143.0283  162.8890 N.pl3   1  UNL1       -0.3425
     10 C         139.4945  141.1480  161.1418 C.ar    1  UNL1        0.0860
     11 H         138.9141  143.9737  163.0985 H       1  UNL1        0.1437
     12 H         139.1841  142.3717  163.6168 H       1  UNL1        0.1437
     13 C         140.7370  140.0294  168.8083 C.ar    1  UNL1        0.1386
     14 C         142.0506  140.2001  168.1048 C.ar    1  UNL1        0.0369
     15 C         142.1020  140.2171  166.6057 C.ar    1  UNL1        0.0031
     16 C         140.8396  140.0634  165.8103 C.ar    1  UNL1        0.0002
     17 C         140.8909  140.0804  164.3113 C.ar    1  UNL1        0.0016
     18 C         139.6286  139.9267  163.5158 C.ar    1  UNL1        0.0195
     19 C         138.3148  139.7561  164.2194 C.ar    1  UNL1        0.0016
     20 C         138.2635  139.7391  165.7184 C.ar    1  UNL1        0.0001
     21 C         139.5259  139.8927  166.5139 C.ar    1  UNL1        0.0030
     22 C         139.4746  139.8757  168.0129 C.ar    1  UNL1        0.0369
     23 O         140.6857  140.0124  170.3074 O.3     1  UNL1       -0.4755
     24 C         140.0958  142.5385  170.4511 C.3     1  UNL1        0.0512
     25 C         140.6763  141.3027  171.0722 C.3     1  UNL1        0.2055
     26 C         140.0901  138.3780  158.4890 C.3     1  UNL1        0.1318
     27 C         141.4447  138.2834  157.8516 C.3     1  UNL1        0.0559
     28 C         142.1491  139.0103  156.7447 C.3     1  UNL1        0.0719
     29 N         143.3603  138.1496  156.9502 N.3     1  UNL1       -0.2973
     30 C         142.6558  137.4227  158.0572 C.3     1  UNL1        0.0719
     31 H         144.1894  138.6623  157.2503 H       1  UNL1        0.1233
@<TRIPOS>BOND
     1    24    25    1
     2    25    23    1
     3    23    13    1
     4    13    14   ar
     5    14    15   ar
     6    15    16   ar
     7    16    17   ar
     8    17    18   ar
     9    18     1    1
    10     1     2   ar
    11     2     3   ar
    12     3    26    1
    13    26    27    1
    14    27    28    1
    15    28    29    1
    16    29    30    1
    17     3     4   ar
    18     4     5   ar
    19     5     6   ar
    20     6     7   ar
    21     7     8   ar
    22     8     9    1
    23     8    10   ar
    24    18    19   ar
    25    19    20   ar
    26    20    21   ar
    27    21    22   ar
    28    22    13   ar
    29    21    16   ar
    30    10     1   ar
    31    30    27    1
    32    10     4   ar
    33    29    31    1
    34     9    11    1
    35     9    12    1
@<TRIPOS>MOLECULE
*****
 31 35 0 0 0
SMALL
GASTEIGER

@<TRIPOS>ATOM
      1 C         140.9182  139.9896  165.2070 C.ar    1  UNL1        0.1065
      2 N         141.3375  141.0802  166.1476 N.ar    1  UNL1       -0.1679
      3 N         140.4261  141.0412  167.3383 N.ar    1  UNL1       -0.2339
      4 C         139.4434  139.9266  167.1336 C.ar    1  UNL1        0.1653
      5 N         138.3110  139.4194  167.9764 N.ar    1  UNL1       -0.2050
      6 C         137.4826  138.2622  167.5020 C.ar    1  UNL1        0.2014
      7 N         137.7868  137.6123  166.1848 N.ar    1  UNL1       -0.2093
      8 C         138.9192  138.1195  165.3419 C.ar    1  UNL1        0.1316
      9 N         139.2234  137.4695  164.0247 N.pl3   1  UNL1       -0.3425
     10 C         139.7475  139.2766  165.8163 C.ar    1  UNL1        0.0860
     11 H         138.6798  136.7101  163.7133 H       1  UNL1        0.1437
     12 H         139.9666  137.8024  163.4715 H       1  UNL1        0.1437
     13 C         142.9921  139.3775  158.6821 C.ar    1  UNL1        0.1386
     14 C         141.8708  140.3714  158.7497 C.ar    1  UNL1        0.0369
     15 C         141.2317  140.6926  160.0682 C.ar    1  UNL1        0.0031
     16 C         141.7140  140.0199  161.3191 C.ar    1  UNL1        0.0002
     17 C         141.0749  140.3411  162.6376 C.ar    1  UNL1        0.0016
     18 C         141.5572  139.6684  163.8885 C.ar    1  UNL1        0.0195
     19 C         142.6787  138.6744  163.8209 C.ar    1  UNL1        0.0016
     20 C         143.3177  138.3532  162.5024 C.ar    1  UNL1        0.0001
     21 C         142.8354  139.0260  161.2515 C.ar    1  UNL1        0.0030
     22 C         143.4744  138.7048  159.9330 C.ar    1  UNL1        0.0369
     23 O         143.6312  139.0563  157.3636 O.3     1  UNL1       -0.4755
     24 C         141.8549  137.2218  156.8846 C.3     1  UNL1        0.0512
     25 C         143.1801  137.8569  156.5839 C.3     1  UNL1        0.2055
     26 C         140.4866  141.9562  168.5253 C.3     1  UNL1        0.1318
     27 C         140.9282  141.4278  169.8578 C.3     1  UNL1        0.0559
     28 C         141.9731  141.8188  170.8606 C.3     1  UNL1        0.0719
     29 N         141.5528  140.6804  171.7423 N.3     1  UNL1       -0.2973
     30 C         140.5080  140.2894  170.7396 C.3     1  UNL1        0.0719
     31 H         141.1761  140.9699  172.6449 H       1  UNL1        0.1233
@<TRIPOS>BOND
     1    24    25    1
     2    25    23    1
     3    23    13    1
     4    13    14   ar
     5    14    15   ar
     6    15    16   ar
     7    16    17   ar
     8    17    18   ar
     9    18     1    1
    10     1     2   ar
    11     2     3   ar
    12     3    26    1
    13    26    27    1
    14    27    28    1
    15    28    29    1
    16    29    30    1
    17     3     4   ar
    18     4     5   ar
    19     5     6   ar
    20     6     7   ar
    21     7     8   ar
    22     8     9    1
    23     8    10   ar
    24    18    19   ar
    25    19    20   ar
    26    20    21   ar
    27    21    22   ar
    28    22    13   ar
    29    21    16   ar
    30    10     1   ar
    31    30    27    1
    32    10     4   ar
    33    29    31    1
    34     9    11    1
    35     9    12    1
@<TRIPOS>MOLECULE
*****
 31 35 0 0 0
SMALL
GASTEIGER

@<TRIPOS>ATOM
      1 C         140.7378  141.6347  164.4179 C.ar    1  UNL1        0.1065
      2 N         139.6223  141.3901  165.3904 N.ar    1  UNL1       -0.1679
      3 N         140.0550  140.3024  166.3283 N.ar    1  UNL1       -0.2339
      4 C         141.4380  139.8747  165.9354 C.ar    1  UNL1        0.1653
      5 N         142.3676  138.8418  166.5002 N.ar    1  UNL1       -0.2050
      6 C         143.7193  138.6323  165.8843 C.ar    1  UNL1        0.2014
      7 N         144.1412  139.4557  164.7036 N.ar    1  UNL1       -0.2093
      8 C         143.2116  140.4885  164.1388 C.ar    1  UNL1        0.1316
      9 N         143.6336  141.3119  162.9581 N.pl3   1  UNL1       -0.3425
     10 C         141.8600  140.6980  164.7547 C.ar    1  UNL1        0.0860
     11 H         144.5206  141.1744  162.5539 H       1  UNL1        0.1437
     12 H         143.0234  141.9898  162.5874 H       1  UNL1        0.1437
     13 C         140.2548  145.2520  158.5928 C.ar    1  UNL1        0.1386
     14 C         139.8002  143.8457  158.3366 C.ar    1  UNL1        0.0369
     15 C         139.8059  142.8410  159.4504 C.ar    1  UNL1        0.0031
     16 C         140.2662  143.2426  160.8204 C.ar    1  UNL1        0.0002
     17 C         140.2718  142.2378  161.9342 C.ar    1  UNL1        0.0016
     18 C         140.7321  142.6394  163.3041 C.ar    1  UNL1        0.0195
     19 C         141.1867  144.0457  163.5604 C.ar    1  UNL1        0.0016
     20 C         141.1811  145.0505  162.4466 C.ar    1  UNL1        0.0001
     21 C         140.7208  144.6488  161.0766 C.ar    1  UNL1        0.0030
     22 C         140.7151  145.6536  159.9628 C.ar    1  UNL1        0.0369
     23 O         140.2492  146.2567  157.4791 O.3     1  UNL1       -0.4755
     24 C         138.9020  147.1118  155.4287 C.3     1  UNL1        0.0512
     25 C         139.4814  145.9776  156.2211 C.3     1  UNL1        0.2055
     26 C         139.2467  139.7410  167.4603 C.3     1  UNL1        0.1318
     27 C         139.6228  140.0546  168.8781 C.3     1  UNL1        0.0559
     28 C         140.8832  139.9629  169.6862 C.3     1  UNL1        0.0719
     29 N         140.1547  140.4981  170.8832 N.3     1  UNL1       -0.2973
     30 C         138.8943  140.5899  170.0751 C.3     1  UNL1        0.0719
     31 H         140.5032  141.3976  171.2149 H       1  UNL1        0.1233
@<TRIPOS>BOND
     1    24    25    1
     2    25    23    1
     3    23    13    1
     4    13    14   ar
     5    14    15   ar
     6    15    16   ar
     7    16    17   ar
     8    17    18   ar
     9    18     1    1
    10     1     2   ar
    11     2     3   ar
    12     3    26    1
    13    26    27    1
    14    27    28    1
    15    28    29    1
    16    29    30    1
    17     3     4   ar
    18     4     5   ar
    19     5     6   ar
    20     6     7   ar
    21     7     8   ar
    22     8     9    1
    23     8    10   ar
    24    18    19   ar
    25    19    20   ar
    26    20    21   ar
    27    21    22   ar
    28    22    13   ar
    29    21    16   ar
    30    10     1   ar
    31    30    27    1
    32    10     4   ar
    33    29    31    1
    34     9    11    1
    35     9    12    1
