@<TRIPOS>MOLECULE
*****
 30 32 0 0 0
SMALL
GASTEIGER

@<TRIPOS>ATOM
      1 C         140.8839  141.8666  167.1903 C.ar    1  UNL1        0.1297
      2 C         142.0396  141.6430  166.2606 C.ar    1  UNL1        0.0486
      3 C         142.1409  142.4296  164.9874 C.ar    1  UNL1        0.0519
      4 C         141.0866  143.4398  164.6440 C.ar    1  UNL1        0.0294
      5 C         139.9310  143.6633  165.5737 C.ar    1  UNL1        0.0621
      6 N         139.8296  142.8767  166.8469 N.ar    1  UNL1       -0.2351
      7 N         143.2967  142.2060  164.0577 N.pl3   1  UNL1       -0.3027
      8 C         144.6453  141.8505  164.6097 C.3     1  UNL1        0.1231
      9 C         145.8010  141.6269  163.6800 C.3     1  UNL1        0.1636
     10 O         145.6081  141.7588  162.1983 O.3     1  UNL1       -0.3501
     11 C         144.2595  142.1144  161.6463 C.3     1  UNL1        0.1636
     12 C         143.1037  142.3380  162.5761 C.3     1  UNL1        0.1231
     13 N         140.7825  141.0800  168.4635 N.pl3   1  UNL1       -0.3090
     14 H         141.2441  140.2142  168.5453 H       1  UNL1        0.1487
     15 C         139.9780  141.6125  169.6121 C.3     1  UNL1        0.1996
     16 C         140.6468  142.4168  170.6871 C.2     1  UNL1        0.3373
     17 O         140.3088  142.1711  172.1277 O.2     1  UNL1       -0.2482
     18 O         141.6536  143.4670  170.3215 O.3     1  UNL1       -0.4473
     19 C         143.9073  142.3413  169.6863 C.3     1  UNL1        0.0513
     20 C         143.1109  143.2348  170.5904 C.3     1  UNL1        0.2086
     21 C         138.8766  144.6735  165.2302 C.3     1  UNL1        0.0556
     22 C         137.6610  144.2556  164.4572 C.3     1  UNL1        0.0916
     23 C         137.7924  143.2887  163.3179 C.ar    1  UNL1        0.2053
     24 N         138.2156  143.6268  161.9191 N.ar    1  UNL1       -0.2168
     25 C         138.2085  142.3611  161.1140 C.ar    1  UNL1        0.0923
     26 C         138.5662  142.2373  159.6625 C.3     1  UNL1        0.0551
     27 C         137.7809  141.2408  162.0154 C.ar    1  UNL1        0.1377
     28 O         137.5238  141.8142  163.3774 O.2     1  UNL1       -0.4430
     29 C         137.6360  139.8003  161.6234 C.3     1  UNL1        0.0658
     30 C         138.4643  138.7509  162.3036 C.3     1  UNL1        0.0085
@<TRIPOS>BOND
     1    19    20    1
     2    20    18    1
     3    18    16    1
     4    16    17    2
     5    16    15    1
     6    15    13    1
     7    13     1    1
     8     1     2   ar
     9     2     3   ar
    10     3     7    1
    11     7     8    1
    12     8     9    1
    13     9    10    1
    14    10    11    1
    15    11    12    1
    16     3     4   ar
    17     4     5   ar
    18     5    21    1
    19    21    22    1
    20    22    23    1
    21    23    24   ar
    22    24    25   ar
    23    25    26    1
    24    25    27   ar
    25    27    29    1
    26    29    30    1
    27    27    28   ar
    28     5     6   ar
    29     6     1   ar
    30    12     7    1
    31    28    23   ar
    32    13    14    1
@<TRIPOS>MOLECULE
*****
 30 32 0 0 0
SMALL
GASTEIGER

@<TRIPOS>ATOM
      1 C         141.1622  142.4482  167.4831 C.ar    1  UNL1        0.1297
      2 C         142.2409  142.0670  166.5131 C.ar    1  UNL1        0.0486
      3 C         142.1638  142.5259  165.0871 C.ar    1  UNL1        0.0519
      4 C         141.0078  143.3660  164.6311 C.ar    1  UNL1        0.0294
      5 C         139.9291  143.7473  165.6011 C.ar    1  UNL1        0.0621
      6 N         140.0063  143.2884  167.0271 N.ar    1  UNL1       -0.2351
      7 N         143.2426  142.1446  164.1171 N.pl3   1  UNL1       -0.3027
      8 C         142.8900  141.8015  162.7001 C.3     1  UNL1        0.1231
      9 C         143.9687  141.4202  161.7301 C.3     1  UNL1        0.1636
     10 O         145.4001  141.3821  162.1771 O.3     1  UNL1       -0.3501
     11 C         145.7527  141.7252  163.5941 C.3     1  UNL1        0.1636
     12 C         144.6739  142.1065  164.5641 C.3     1  UNL1        0.1231
     13 N         141.2394  141.9893  168.9091 N.pl3   1  UNL1       -0.3090
     14 H         142.1156  141.8809  169.3446 H       1  UNL1        0.1487
     15 C         139.9815  141.6956  169.6716 C.3     1  UNL1        0.1996
     16 C         139.2654  140.3940  169.4642 C.2     1  UNL1        0.3373
     17 O         138.1569  139.9918  170.3913 O.2     1  UNL1       -0.2482
     18 O         139.6577  139.4946  168.3296 O.3     1  UNL1       -0.4473
     19 C         137.6757  138.5062  166.9713 C.3     1  UNL1        0.0513
     20 C         138.8291  139.4590  167.0797 C.3     1  UNL1        0.2086
     21 C         138.7731  144.5875  165.1451 C.3     1  UNL1        0.0556
     22 C         137.5777  143.9386  164.5127 C.3     1  UNL1        0.0916
     23 C         137.7439  143.1000  163.2801 C.ar    1  UNL1        0.2053
     24 N         138.1825  143.5909  161.9323 N.ar    1  UNL1       -0.2168
     25 C         138.2104  142.4176  160.9981 C.ar    1  UNL1        0.0923
     26 C         138.5925  142.4539  159.5481 C.3     1  UNL1        0.0551
     27 C         137.7890  141.2015  161.7687 C.ar    1  UNL1        0.1377
     28 O         137.5007  141.6233  163.1790 O.2     1  UNL1       -0.4430
     29 C         137.6758  139.8084  161.2245 C.3     1  UNL1        0.0658
     30 C         138.9118  138.9902  160.9944 C.3     1  UNL1        0.0085
@<TRIPOS>BOND
     1    19    20    1
     2    20    18    1
     3    18    16    1
     4    16    17    2
     5    16    15    1
     6    15    13    1
     7    13     1    1
     8     1     2   ar
     9     2     3   ar
    10     3     7    1
    11     7     8    1
    12     8     9    1
    13     9    10    1
    14    10    11    1
    15    11    12    1
    16     3     4   ar
    17     4     5   ar
    18     5    21    1
    19    21    22    1
    20    22    23    1
    21    23    24   ar
    22    24    25   ar
    23    25    26    1
    24    25    27   ar
    25    27    29    1
    26    29    30    1
    27    27    28   ar
    28     5     6   ar
    29     6     1   ar
    30    12     7    1
    31    28    23   ar
    32    13    14    1
@<TRIPOS>MOLECULE
*****
 30 32 0 0 0
SMALL
GASTEIGER

@<TRIPOS>ATOM
      1 C         142.7106  139.7520  165.2274 C.ar    1  UNL1        0.1297
      2 C         142.1444  139.7762  166.6162 C.ar    1  UNL1        0.0486
      3 C         142.3366  140.9848  167.4835 C.ar    1  UNL1        0.0519
      4 C         143.0951  142.1692  166.9621 C.ar    1  UNL1        0.0294
      5 C         143.6613  142.1450  165.5733 C.ar    1  UNL1        0.0621
      6 N         143.4690  140.9364  164.7060 N.ar    1  UNL1       -0.2351
      7 N         141.7704  141.0090  168.8724 N.pl3   1  UNL1       -0.3027
      8 C         140.6970  140.0363  169.2617 C.3     1  UNL1        0.1231
      9 C         140.1307  140.0604  170.6505 C.3     1  UNL1        0.1636
     10 O         140.6379  141.0573  171.6500 O.3     1  UNL1       -0.3501
     11 C         141.7113  142.0301  171.2607 C.3     1  UNL1        0.1636
     12 C         142.2776  142.0059  169.8719 C.3     1  UNL1        0.1231
     13 N         142.5183  138.5434  164.3600 N.pl3   1  UNL1       -0.3090
     14 H         143.1308  138.3748  163.6079 H       1  UNL1        0.1487
     15 C         141.3929  137.5917  164.6386 C.3     1  UNL1        0.1996
     16 C         140.1848  137.5780  163.7495 C.2     1  UNL1        0.3373
     17 O         140.3399  137.3371  162.2772 O.2     1  UNL1       -0.2482
     18 O         138.8217  137.8052  164.3329 O.3     1  UNL1       -0.4473
     19 C         138.0770  138.7735  166.6259 C.3     1  UNL1        0.0513
     20 C         138.5755  138.9842  165.2270 C.3     1  UNL1        0.2086
     21 C         144.4198  143.3294  165.0518 C.3     1  UNL1        0.0556
     22 C         143.6809  144.4855  164.4456 C.3     1  UNL1        0.0916
     23 C         142.3109  144.2812  163.8699 C.ar    1  UNL1        0.2053
     24 N         141.9907  144.0177  162.4283 N.ar    1  UNL1       -0.2168
     25 C         140.5024  143.8782  162.3021 C.ar    1  UNL1        0.0923
     26 C         139.7465  143.6087  161.0349 C.3     1  UNL1        0.0551
     27 C         139.9030  144.0554  163.6658 C.ar    1  UNL1        0.1377
     28 O         141.0207  144.3044  164.6346 O.2     1  UNL1       -0.4430
     29 C         138.4424  143.9942  164.0015 C.3     1  UNL1        0.0658
     30 C         137.8347  142.7068  164.4740 C.3     1  UNL1        0.0085
@<TRIPOS>BOND
     1    19    20    1
     2    20    18    1
     3    18    16    1
     4    16    17    2
     5    16    15    1
     6    15    13    1
     7    13     1    1
     8     1     2   ar
     9     2     3   ar
    10     3     7    1
    11     7     8    1
    12     8     9    1
    13     9    10    1
    14    10    11    1
    15    11    12    1
    16     3     4   ar
    17     4     5   ar
    18     5    21    1
    19    21    22    1
    20    22    23    1
    21    23    24   ar
    22    24    25   ar
    23    25    26    1
    24    25    27   ar
    25    27    29    1
    26    29    30    1
    27    27    28   ar
    28     5     6   ar
    29     6     1   ar
    30    12     7    1
    31    28    23   ar
    32    13    14    1
@<TRIPOS>MOLECULE
*****
 30 32 0 0 0
SMALL
GASTEIGER

@<TRIPOS>ATOM
      1 C         140.4555  143.8156  164.5236 C.ar    1  UNL1        0.1297
      2 C         140.0446  143.3522  165.8898 C.ar    1  UNL1        0.0486
      3 C         141.0332  142.6494  166.7722 C.ar    1  UNL1        0.0519
      4 C         142.4328  142.4101  166.2886 C.ar    1  UNL1        0.0294
      5 C         142.8437  142.8736  164.9224 C.ar    1  UNL1        0.0621
      6 N         141.8550  143.5763  164.0400 N.ar    1  UNL1       -0.2351
      7 N         140.6223  142.1860  168.1384 N.pl3   1  UNL1       -0.3027
      8 C         140.4187  143.1843  169.2393 C.3     1  UNL1        0.1231
      9 C         140.0078  142.7209  170.6054 C.3     1  UNL1        0.1636
     10 O         139.8004  141.2591  170.8707 O.3     1  UNL1       -0.3501
     11 C         140.0039  140.2608  169.7698 C.3     1  UNL1        0.1636
     12 C         140.4149  140.7243  168.4036 C.3     1  UNL1        0.1231
     13 N         139.4668  144.5183  163.6412 N.pl3   1  UNL1       -0.3090
     14 H         139.7475  145.2999  163.1124 H       1  UNL1        0.1487
     15 C         138.0506  144.0303  163.5644 C.3     1  UNL1        0.1996
     16 C         137.6887  142.9243  162.6179 C.2     1  UNL1        0.3373
     17 O         137.7457  143.1559  161.1370 O.2     1  UNL1       -0.2482
     18 O         137.2697  141.5868  163.1523 O.3     1  UNL1       -0.4473
     19 C         138.2378  140.2182  165.1372 C.3     1  UNL1        0.0513
     20 C         138.2984  140.6422  163.6996 C.3     1  UNL1        0.2086
     21 C         144.2433  142.6343  164.4387 C.3     1  UNL1        0.0556
     22 C         144.7936  141.2396  164.3951 C.3     1  UNL1        0.0916
     23 C         144.0503  140.1626  163.6618 C.ar    1  UNL1        0.2053
     24 N         144.3692  139.6496  162.2888 N.ar    1  UNL1       -0.2168
     25 C         143.3736  138.5795  161.9511 C.ar    1  UNL1        0.0923
     26 C         143.3213  137.7953  160.6735 C.3     1  UNL1        0.0551
     27 C         142.4396  138.4313  163.1155 C.ar    1  UNL1        0.1377
     28 O         142.8578  139.4097  164.1727 O.2     1  UNL1       -0.4430
     29 C         141.2893  137.4729  163.2066 C.3     1  UNL1        0.0658
     30 C         140.9157  136.8732  164.5297 C.3     1  UNL1        0.0085
@<TRIPOS>BOND
     1    19    20    1
     2    20    18    1
     3    18    16    1
     4    16    17    2
     5    16    15    1
     6    15    13    1
     7    13     1    1
     8     1     2   ar
     9     2     3   ar
    10     3     7    1
    11     7     8    1
    12     8     9    1
    13     9    10    1
    14    10    11    1
    15    11    12    1
    16     3     4   ar
    17     4     5   ar
    18     5    21    1
    19    21    22    1
    20    22    23    1
    21    23    24   ar
    22    24    25   ar
    23    25    26    1
    24    25    27   ar
    25    27    29    1
    26    29    30    1
    27    27    28   ar
    28     5     6   ar
    29     6     1   ar
    30    12     7    1
    31    28    23   ar
    32    13    14    1
@<TRIPOS>MOLECULE
*****
 30 32 0 0 0
SMALL
GASTEIGER

@<TRIPOS>ATOM
      1 C         140.3391  142.2988  166.9488 C.ar    1  UNL1        0.1297
      2 C         140.3268  143.1618  165.7220 C.ar    1  UNL1        0.0486
      3 C         139.6995  142.6572  164.4563 C.ar    1  UNL1        0.0519
      4 C         139.0845  141.2897  164.4174 C.ar    1  UNL1        0.0294
      5 C         139.0968  140.4267  165.6442 C.ar    1  UNL1        0.0621
      6 N         139.7241  140.9313  166.9099 N.ar    1  UNL1       -0.2351
      7 N         139.6873  143.5203  163.2295 N.pl3   1  UNL1       -0.3027
      8 C         139.7452  142.8910  161.8692 C.3     1  UNL1        0.1231
      9 C         139.7329  143.7539  160.6424 C.3     1  UNL1        0.1636
     10 O         139.6628  145.2464  160.7759 O.3     1  UNL1       -0.3501
     11 C         139.6049  145.8758  162.1362 C.3     1  UNL1        0.1636
     12 C         139.6172  145.0127  163.3631 C.3     1  UNL1        0.1231
     13 N         140.9664  142.8033  168.2145 N.pl3   1  UNL1       -0.3090
     14 H         141.8407  143.2549  168.1845 H       1  UNL1        0.1487
     15 C         140.2616  142.6198  169.5258 C.3     1  UNL1        0.1996
     16 C         140.9886  142.0143  170.6897 C.2     1  UNL1        0.3373
     17 O         140.4690  142.2109  172.0830 O.2     1  UNL1       -0.2482
     18 O         142.2352  141.2122  170.4603 O.3     1  UNL1       -0.4473
     19 C         142.6069  139.4828  168.5575 C.3     1  UNL1        0.0513
     20 C         142.1385  139.8068  169.9451 C.3     1  UNL1        0.2086
     21 C         138.4818  139.0591  165.6053 C.3     1  UNL1        0.0556
     22 C         139.3040  137.8788  165.1805 C.3     1  UNL1        0.0916
     23 C         140.6772  138.0863  164.6134 C.ar    1  UNL1        0.2053
     24 N         141.0942  137.8264  163.1962 N.ar    1  UNL1       -0.2168
     25 C         142.5491  138.1697  163.0708 C.ar    1  UNL1        0.0923
     26 C         143.3767  138.0601  161.8246 C.3     1  UNL1        0.0551
     27 C         143.0311  138.6418  164.4106 C.ar    1  UNL1        0.1377
     28 O         141.8741  138.5903  165.3639 O.2     1  UNL1       -0.4430
     29 C         144.4251  139.0872  164.7392 C.3     1  UNL1        0.0658
     30 C         144.9472  140.3827  164.1924 C.3     1  UNL1        0.0085
@<TRIPOS>BOND
     1    19    20    1
     2    20    18    1
     3    18    16    1
     4    16    17    2
     5    16    15    1
     6    15    13    1
     7    13     1    1
     8     1     2   ar
     9     2     3   ar
    10     3     7    1
    11     7     8    1
    12     8     9    1
    13     9    10    1
    14    10    11    1
    15    11    12    1
    16     3     4   ar
    17     4     5   ar
    18     5    21    1
    19    21    22    1
    20    22    23    1
    21    23    24   ar
    22    24    25   ar
    23    25    26    1
    24    25    27   ar
    25    27    29    1
    26    29    30    1
    27    27    28   ar
    28     5     6   ar
    29     6     1   ar
    30    12     7    1
    31    28    23   ar
    32    13    14    1
@<TRIPOS>MOLECULE
*****
 30 32 0 0 0
SMALL
GASTEIGER

@<TRIPOS>ATOM
      1 C         142.5950  143.7145  164.1659 C.ar    1  UNL1        0.1297
      2 C         143.0015  142.8833  165.3465 C.ar    1  UNL1        0.0486
      3 C         141.9909  142.5259  166.3958 C.ar    1  UNL1        0.0519
      4 C         140.5738  142.9997  166.2644 C.ar    1  UNL1        0.0294
      5 C         140.1673  143.8309  165.0838 C.ar    1  UNL1        0.0621
      6 N         141.1779  144.1883  164.0346 N.ar    1  UNL1       -0.2351
      7 N         142.3974  141.6947  167.5764 N.pl3   1  UNL1       -0.3027
      8 C         142.1573  140.2141  167.5695 C.3     1  UNL1        0.1231
      9 C         142.5638  139.3829  168.7501 C.3     1  UNL1        0.1636
     10 O         143.2105  140.0323  169.9376 O.3     1  UNL1       -0.3501
     11 C         143.4506  141.5129  169.9445 C.3     1  UNL1        0.1636
     12 C         143.0440  142.3441  168.7639 C.3     1  UNL1        0.1231
     13 N         143.6057  144.0719  163.1167 N.pl3   1  UNL1       -0.3090
     14 H         144.3143  144.7250  163.3180 H       1  UNL1        0.1487
     15 C         143.5366  143.4342  161.7608 C.3     1  UNL1        0.1996
     16 C         144.6806  142.6001  161.2651 C.2     1  UNL1        0.3373
     17 O         145.0017  142.5621  159.8005 O.2     1  UNL1       -0.2482
     18 O         145.5034  141.8039  162.2343 O.3     1  UNL1       -0.4473
     19 C         144.1074  139.6128  162.2463 C.3     1  UNL1        0.0513
     20 C         144.8827  140.6631  162.9849 C.3     1  UNL1        0.2086
     21 C         138.7501  144.3047  164.9524 C.3     1  UNL1        0.0556
     22 C         137.7683  143.5164  164.1372 C.3     1  UNL1        0.0916
     23 C         137.9183  142.0289  164.0149 C.ar    1  UNL1        0.2053
     24 N         137.8224  141.2345  162.7462 N.ar    1  UNL1       -0.2168
     25 C         138.0353  139.7892  163.0870 C.ar    1  UNL1        0.0923
     26 C         138.0229  138.6439  162.1185 C.3     1  UNL1        0.0551
     27 C         138.2628  139.6906  164.5664 C.ar    1  UNL1        0.1377
     28 O         138.1905  141.0747  165.1399 O.2     1  UNL1       -0.4430
     29 C         138.5178  138.4293  165.3370 C.3     1  UNL1        0.0658
     30 C         137.8384  138.2054  166.6555 C.3     1  UNL1        0.0085
@<TRIPOS>BOND
     1    19    20    1
     2    20    18    1
     3    18    16    1
     4    16    17    2
     5    16    15    1
     6    15    13    1
     7    13     1    1
     8     1     2   ar
     9     2     3   ar
    10     3     7    1
    11     7     8    1
    12     8     9    1
    13     9    10    1
    14    10    11    1
    15    11    12    1
    16     3     4   ar
    17     4     5   ar
    18     5    21    1
    19    21    22    1
    20    22    23    1
    21    23    24   ar
    22    24    25   ar
    23    25    26    1
    24    25    27   ar
    25    27    29    1
    26    29    30    1
    27    27    28   ar
    28     5     6   ar
    29     6     1   ar
    30    12     7    1
    31    28    23   ar
    32    13    14    1
@<TRIPOS>MOLECULE
*****
 30 32 0 0 0
SMALL
GASTEIGER

@<TRIPOS>ATOM
      1 C         139.5595  142.4533  165.1121 C.ar    1  UNL1        0.1297
      2 C         140.0987  142.6544  166.4973 C.ar    1  UNL1        0.0486
      3 C         140.2705  141.4791  167.4133 C.ar    1  UNL1        0.0519
      4 C         139.9031  140.1025  166.9441 C.ar    1  UNL1        0.0294
      5 C         139.3640  139.9014  165.5589 C.ar    1  UNL1        0.0621
      6 N         139.1922  141.0767  164.6429 N.ar    1  UNL1       -0.2351
      7 N         140.8096  141.6803  168.7986 N.pl3   1  UNL1       -0.3027
      8 C         140.2724  140.8661  169.9381 C.3     1  UNL1        0.1231
      9 C         140.8115  141.0672  171.3233 C.3     1  UNL1        0.1636
     10 O         141.8879  142.0827  171.5690 O.3     1  UNL1       -0.3501
     11 C         142.4252  142.8969  170.4295 C.3     1  UNL1        0.1636
     12 C         141.8860  142.6956  169.0443 C.3     1  UNL1        0.1231
     13 N         139.3877  143.6286  164.1962 N.pl3   1  UNL1       -0.3090
     14 H         138.6171  143.6677  163.5847 H       1  UNL1        0.1487
     15 C         140.3900  144.7445  164.2118 C.3     1  UNL1        0.1996
     16 C         141.0228  145.2023  162.9312 C.2     1  UNL1        0.3373
     17 O         140.2848  146.1412  162.0237 O.2     1  UNL1       -0.2482
     18 O         142.3937  144.7210  162.5581 O.3     1  UNL1       -0.4473
     19 C         143.9873  144.1714  164.5351 C.3     1  UNL1        0.0513
     20 C         143.5726  145.0778  163.4142 C.3     1  UNL1        0.2086
     21 C         138.9966  138.5248  165.0896 C.3     1  UNL1        0.0556
     22 C         140.0688  137.5048  164.8449 C.3     1  UNL1        0.0916
     23 C         141.3724  137.9198  164.2296 C.ar    1  UNL1        0.2053
     24 N         141.7544  137.7678  162.7871 N.ar    1  UNL1       -0.2168
     25 C         143.1410  138.3137  162.6148 C.ar    1  UNL1        0.0923
     26 C         143.9165  138.3618  161.3317 C.3     1  UNL1        0.0551
     27 C         143.6158  138.8031  163.9509 C.ar    1  UNL1        0.1377
     28 O         142.5227  138.5597  164.9489 O.2     1  UNL1       -0.4430
     29 C         144.9494  139.4265  164.2385 C.3     1  UNL1        0.0658
     30 C         145.2538  140.8089  163.7424 C.3     1  UNL1        0.0085
@<TRIPOS>BOND
     1    19    20    1
     2    20    18    1
     3    18    16    1
     4    16    17    2
     5    16    15    1
     6    15    13    1
     7    13     1    1
     8     1     2   ar
     9     2     3   ar
    10     3     7    1
    11     7     8    1
    12     8     9    1
    13     9    10    1
    14    10    11    1
    15    11    12    1
    16     3     4   ar
    17     4     5   ar
    18     5    21    1
    19    21    22    1
    20    22    23    1
    21    23    24   ar
    22    24    25   ar
    23    25    26    1
    24    25    27   ar
    25    27    29    1
    26    29    30    1
    27    27    28   ar
    28     5     6   ar
    29     6     1   ar
    30    12     7    1
    31    28    23   ar
    32    13    14    1
@<TRIPOS>MOLECULE
*****
 30 32 0 0 0
SMALL
GASTEIGER

@<TRIPOS>ATOM
      1 C         142.5417  141.1027  167.5723 C.ar    1  UNL1        0.1297
      2 C         141.8869  140.1202  166.6471 C.ar    1  UNL1        0.0486
      3 C         142.0666  140.2522  165.1638 C.ar    1  UNL1        0.0519
      4 C         142.9010  141.3667  164.6056 C.ar    1  UNL1        0.0294
      5 C         143.5558  142.3492  165.5307 C.ar    1  UNL1        0.0621
      6 N         143.3761  142.2172  167.0141 N.ar    1  UNL1       -0.2351
      7 N         141.4117  139.2697  164.2386 N.pl3   1  UNL1       -0.3027
      8 C         139.9948  138.8409  164.4808 C.3     1  UNL1        0.1231
      9 C         139.3400  137.8584  163.5557 C.3     1  UNL1        0.1636
     10 O         140.1021  137.3046  162.3883 O.3     1  UNL1       -0.3501
     11 C         141.5189  137.7334  162.1462 C.3     1  UNL1        0.1636
     12 C         142.1738  138.7159  163.0713 C.3     1  UNL1        0.1231
     13 N         142.3620  140.9707  169.0556 N.pl3   1  UNL1       -0.3090
     14 H         142.8797  141.5429  169.6670 H       1  UNL1        0.1487
     15 C         141.3936  139.9669  169.6074 C.3     1  UNL1        0.1996
     16 C         140.4113  140.3752  170.6649 C.2     1  UNL1        0.3373
     17 O         139.3503  139.4146  171.1140 O.2     1  UNL1       -0.2482
     18 O         140.4899  141.7440  171.2733 O.3     1  UNL1       -0.4473
     19 C         140.4514  143.8907  169.8104 C.3     1  UNL1        0.0513
     20 C         139.7326  142.8831  170.6576 C.3     1  UNL1        0.2086
     21 C         144.3903  143.4637  164.9726 C.3     1  UNL1        0.0556
     22 C         143.7360  144.7327  164.5128 C.3     1  UNL1        0.0916
     23 C         142.4274  144.6796  163.7813 C.ar    1  UNL1        0.2053
     24 N         142.2511  144.6275  162.2926 N.ar    1  UNL1       -0.2168
     25 C         140.7802  144.5849  162.0013 C.ar    1  UNL1        0.0923
     26 C         140.1522  144.5267  160.6403 C.3     1  UNL1        0.0551
     27 C         140.0476  144.6106  163.3100 C.ar    1  UNL1        0.1377
     28 O         141.0656  144.6692  164.4101 O.2     1  UNL1       -0.4430
     29 C         138.5585  144.5828  163.4875 C.3     1  UNL1        0.0658
     30 C         137.9264  143.5392  164.3601 C.3     1  UNL1        0.0085
@<TRIPOS>BOND
     1    19    20    1
     2    20    18    1
     3    18    16    1
     4    16    17    2
     5    16    15    1
     6    15    13    1
     7    13     1    1
     8     1     2   ar
     9     2     3   ar
    10     3     7    1
    11     7     8    1
    12     8     9    1
    13     9    10    1
    14    10    11    1
    15    11    12    1
    16     3     4   ar
    17     4     5   ar
    18     5    21    1
    19    21    22    1
    20    22    23    1
    21    23    24   ar
    22    24    25   ar
    23    25    26    1
    24    25    27   ar
    25    27    29    1
    26    29    30    1
    27    27    28   ar
    28     5     6   ar
    29     6     1   ar
    30    12     7    1
    31    28    23   ar
    32    13    14    1
@<TRIPOS>MOLECULE
*****
 30 32 0 0 0
SMALL
GASTEIGER

@<TRIPOS>ATOM
      1 C         143.5234  141.1557  165.0553 C.ar    1  UNL1        0.1297
      2 C         143.0824  141.7132  166.3762 C.ar    1  UNL1        0.0486
      3 C         142.0938  140.9598  167.2158 C.ar    1  UNL1        0.0519
      4 C         141.5461  139.6489  166.7346 C.ar    1  UNL1        0.0294
      5 C         141.9870  139.0914  165.4138 C.ar    1  UNL1        0.0621
      6 N         142.9757  139.8448  164.5741 N.ar    1  UNL1       -0.2351
      7 N         141.6528  141.5174  168.5367 N.pl3   1  UNL1       -0.3027
      8 C         140.7836  142.7390  168.5826 C.3     1  UNL1        0.1231
      9 C         140.3426  143.2966  169.9034 C.3     1  UNL1        0.1636
     10 O         140.7709  142.6326  171.1785 O.3     1  UNL1       -0.3501
     11 C         141.6401  141.4109  171.1326 C.3     1  UNL1        0.1636
     12 C         142.0811  140.8534  169.8117 C.3     1  UNL1        0.1231
     13 N         144.5120  141.9090  164.2157 N.pl3   1  UNL1       -0.3090
     14 H         145.4341  142.0364  164.5363 H       1  UNL1        0.1487
     15 C         144.0958  142.4683  162.8876 C.3     1  UNL1        0.1996
     16 C         143.3704  143.7795  162.8200 C.2     1  UNL1        0.3373
     17 O         144.1419  145.0563  162.6633 O.2     1  UNL1       -0.2482
     18 O         141.8734  143.8139  162.9092 O.3     1  UNL1       -0.4473
     19 C         140.3024  143.2996  164.9136 C.3     1  UNL1        0.0513
     20 C         141.2076  144.2459  164.1821 C.3     1  UNL1        0.2086
     21 C         141.4393  137.7805  164.9325 C.3     1  UNL1        0.0556
     22 C         139.9594  137.6020  164.7652 C.3     1  UNL1        0.0916
     23 C         139.1818  138.5532  163.9045 C.ar    1  UNL1        0.2053
     24 N         138.7566  138.3125  162.4863 N.ar    1  UNL1       -0.2168
     25 C         138.0048  139.5226  162.0162 C.ar    1  UNL1        0.0923
     26 C         137.3988  139.7111  160.6571 C.3     1  UNL1        0.0551
     27 C         137.9656  140.5109  163.1439 C.ar    1  UNL1        0.1377
     28 O         138.6930  139.9118  164.3109 O.2     1  UNL1       -0.4430
     29 C         137.3134  141.8612  163.1105 C.3     1  UNL1        0.0658
     30 C         137.8665  142.9396  162.2266 C.3     1  UNL1        0.0085
@<TRIPOS>BOND
     1    19    20    1
     2    20    18    1
     3    18    16    1
     4    16    17    2
     5    16    15    1
     6    15    13    1
     7    13     1    1
     8     1     2   ar
     9     2     3   ar
    10     3     7    1
    11     7     8    1
    12     8     9    1
    13     9    10    1
    14    10    11    1
    15    11    12    1
    16     3     4   ar
    17     4     5   ar
    18     5    21    1
    19    21    22    1
    20    22    23    1
    21    23    24   ar
    22    24    25   ar
    23    25    26    1
    24    25    27   ar
    25    27    29    1
    26    29    30    1
    27    27    28   ar
    28     5     6   ar
    29     6     1   ar
    30    12     7    1
    31    28    23   ar
    32    13    14    1
