@<TRIPOS>MOLECULE
*****
 32 36 0 0 0
SMALL
GASTEIGER

@<TRIPOS>ATOM
      1 C         142.6433  144.3525  161.6273 C.3     1  UNL1        0.0730
      2 N         143.3351  143.2644  162.3937 N.3     1  UNL1       -0.2724
      3 C         144.5986  142.5658  161.9870 C.3     1  UNL1        0.0724
      4 C         144.9292  141.5534  163.0433 C.3     1  UNL1        0.0214
      5 C         144.9987  140.6475  164.2368 C.3     1  UNL1        0.0072
      6 C         143.8700  141.6263  164.1029 C.3     1  UNL1        0.0350
      7 C         142.8848  142.6838  163.7014 C.3     1  UNL1        0.0761
      8 C         143.1837  141.2504  165.3826 C.ar    1  UNL1       -0.0215
      9 C         142.4421  139.9503  165.4820 C.ar    1  UNL1       -0.0046
     10 C         141.7558  139.5743  166.7618 C.ar    1  UNL1       -0.0046
     11 C         141.8111  140.4984  167.9421 C.ar    1  UNL1       -0.0228
     12 C         142.5528  141.7985  167.8426 C.ar    1  UNL1       -0.0046
     13 C         143.2391  142.1744  166.5629 C.ar    1  UNL1       -0.0046
     14 C         141.1249  140.1224  169.2218 C.3     1  UNL1        0.0189
     15 C         139.8590  140.7593  168.7300 C.3     1  UNL1        0.0044
     16 C         142.3908  139.4855  169.7135 C.3     1  UNL1        0.0044
     17 C         140.4386  139.7465  170.5015 C.3     1  UNL1        0.0044
     18 C         141.1485  144.3486  161.5031 C.3     1  UNL1        0.0294
     19 C         140.3335  145.3825  162.2220 C.3     1  UNL1        0.0666
     20 S         138.9855  145.0242  162.7740 S.3     1  UNL1       -0.0756
     21 C         138.2533  141.2929  163.5522 C.ar    1  UNL1        0.2029
     22 N         137.5229  141.4669  162.2536 N.ar    1  UNL1       -0.1250
     23 N         137.7083  142.8858  161.8040 N.ar    1  UNL1       -0.1220
     24 C         138.5532  143.5888  162.8248 C.ar    1  UNL1        0.1933
     25 N         138.8900  142.6042  163.9052 N.ar    1  UNL1       -0.2860
     26 C         139.7182  142.8824  165.1245 C.3     1  UNL1        0.1341
     27 C         139.2491  138.3833  162.4601 C.3     1  UNL1        0.0556
     28 C         138.7905  138.6919  163.8546 C.ar    1  UNL1        0.1001
     29 N         138.7092  137.7173  164.9919 N.ar    1  UNL1       -0.2085
     30 C         138.2013  138.4523  166.1968 C.ar    1  UNL1        0.2849
     31 O         137.9687  139.8811  165.8041 O.2     1  UNL1       -0.4283
     32 C         138.3328  140.0292  164.3566 C.ar    1  UNL1        0.1964
@<TRIPOS>BOND
     1    27    28    1
     2    28    29   ar
     3    29    30   ar
     4    30    31   ar
     5    31    32   ar
     6    32    21    1
     7    21    22   ar
     8    22    23   ar
     9    23    24   ar
    10    24    20    1
    11    20    19    1
    12    19    18    1
    13    18     1    1
    14     1     2    1
    15     2     3    1
    16     4     3    1
    17     4     5    1
    18     5     6    1
    19     6     8    1
    20     8     9   ar
    21     9    10   ar
    22    10    11   ar
    23    11    14    1
    24    14    15    1
    25    14    16    1
    26    14    17    1
    27    11    12   ar
    28    12    13   ar
    29     6     7    1
    30    24    25   ar
    31    25    26    1
    32    32    28   ar
    33    25    21   ar
    34     7     2    1
    35     6     4    1
    36    13     8   ar
@<TRIPOS>MOLECULE
*****
 32 36 0 0 0
SMALL
GASTEIGER

@<TRIPOS>ATOM
      1 C         142.0459  141.6791  161.0497 C.3     1  UNL1        0.0730
      2 N         142.8942  140.9839  162.0730 N.3     1  UNL1       -0.2724
      3 C         144.0978  140.1344  161.7905 C.3     1  UNL1        0.0724
      4 C         144.6354  139.6416  163.1013 C.3     1  UNL1        0.0214
      5 C         144.9343  139.3120  164.5338 C.3     1  UNL1        0.0072
      6 C         143.7640  140.1865  164.1939 C.3     1  UNL1        0.0350
      7 C         142.6879  141.0160  163.5584 C.3     1  UNL1        0.0761
      8 C         143.3130  140.4015  165.6083 C.ar    1  UNL1       -0.0215
      9 C         143.0208  139.2234  166.4896 C.ar    1  UNL1       -0.0046
     10 C         142.5698  139.4383  167.9040 C.ar    1  UNL1       -0.0046
     11 C         142.4109  140.8314  168.4370 C.ar    1  UNL1       -0.0228
     12 C         142.7031  142.0096  167.5556 C.ar    1  UNL1       -0.0046
     13 C         143.1541  141.7946  166.1413 C.ar    1  UNL1       -0.0046
     14 C         141.9599  141.0464  169.8513 C.3     1  UNL1        0.0189
     15 C         141.0038  139.8980  169.7210 C.3     1  UNL1        0.0044
     16 C         142.9160  142.1948  169.9816 C.3     1  UNL1        0.0044
     17 C         141.5089  141.2614  171.2657 C.3     1  UNL1        0.0044
     18 C         140.6601  141.1825  160.7618 C.3     1  UNL1        0.0294
     19 C         140.4458  140.1111  159.7340 C.3     1  UNL1        0.0666
     20 S         140.3456  138.6754  160.1569 S.3     1  UNL1       -0.0756
     21 C         139.7215  138.0435  163.9353 C.ar    1  UNL1        0.2029
     22 N         141.1094  137.4977  163.7755 N.ar    1  UNL1       -0.1250
     23 N         141.5122  137.6679  162.3408 N.ar    1  UNL1       -0.1220
     24 C         140.3731  138.3190  161.6137 C.ar    1  UNL1        0.1933
     25 N         139.2664  138.5512  162.5993 N.ar    1  UNL1       -0.2860
     26 C         137.9379  139.1805  162.3010 C.3     1  UNL1        0.1341
     27 C         139.5333  140.5513  166.0151 C.3     1  UNL1        0.0556
     28 C         138.8414  139.2287  166.1637 C.ar    1  UNL1        0.1001
     29 N         137.9416  138.8267  167.2945 N.ar    1  UNL1       -0.2085
     30 C         137.4719  137.4255  167.0373 C.ar    1  UNL1        0.2849
     31 O         138.0814  136.9616  165.7478 O.2     1  UNL1       -0.4283
     32 C         138.9279  138.0761  165.2078 C.ar    1  UNL1        0.1964
@<TRIPOS>BOND
     1    27    28    1
     2    28    29   ar
     3    29    30   ar
     4    30    31   ar
     5    31    32   ar
     6    32    21    1
     7    21    22   ar
     8    22    23   ar
     9    23    24   ar
    10    24    20    1
    11    20    19    1
    12    19    18    1
    13    18     1    1
    14     1     2    1
    15     2     3    1
    16     4     3    1
    17     4     5    1
    18     5     6    1
    19     6     8    1
    20     8     9   ar
    21     9    10   ar
    22    10    11   ar
    23    11    14    1
    24    14    15    1
    25    14    16    1
    26    14    17    1
    27    11    12   ar
    28    12    13   ar
    29     6     7    1
    30    24    25   ar
    31    25    26    1
    32    32    28   ar
    33    25    21   ar
    34     7     2    1
    35     6     4    1
    36    13     8   ar
@<TRIPOS>MOLECULE
*****
 32 36 0 0 0
SMALL
GASTEIGER

@<TRIPOS>ATOM
      1 C         142.6049  141.3218  160.4665 C.3     1  UNL1        0.0730
      2 N         143.0046  142.2116  161.6060 N.3     1  UNL1       -0.2724
      3 C         144.0153  143.3185  161.5478 C.3     1  UNL1        0.0724
      4 C         144.0991  143.9418  162.9095 C.3     1  UNL1        0.0214
      5 C         143.9658  144.3516  164.3463 C.3     1  UNL1        0.0072
      6 C         143.1402  143.2202  163.8094 C.3     1  UNL1        0.0350
      7 C         142.4638  142.1509  163.0038 C.3     1  UNL1        0.0761
      8 C         142.4268  142.9229  165.0950 C.ar    1  UNL1       -0.0215
      9 C         143.1471  142.2201  166.2072 C.ar    1  UNL1       -0.0046
     10 C         142.4337  141.9228  167.4929 C.ar    1  UNL1       -0.0046
     11 C         141.0000  142.3283  167.6661 C.ar    1  UNL1       -0.0228
     12 C         140.2797  143.0312  166.5537 C.ar    1  UNL1       -0.0046
     13 C         140.9931  143.3285  165.2682 C.ar    1  UNL1       -0.0046
     14 C         140.2865  142.0311  168.9517 C.3     1  UNL1        0.0189
     15 C         140.1616  140.5914  168.5494 C.3     1  UNL1        0.0044
     16 C         140.4115  143.4707  169.3539 C.3     1  UNL1        0.0044
     17 C         139.5731  141.7338  170.2372 C.3     1  UNL1        0.0044
     18 C         143.5180  140.2185  160.0205 C.3     1  UNL1        0.0294
     19 C         144.0110  139.2062  161.0116 C.3     1  UNL1        0.0666
     20 S         143.2568  137.9254  161.2137 S.3     1  UNL1       -0.0756
     21 C         139.9424  138.1018  163.2257 C.ar    1  UNL1        0.2029
     22 N         139.4248  137.9118  161.8307 N.ar    1  UNL1       -0.1250
     23 N         140.6034  137.8226  160.9072 N.ar    1  UNL1       -0.1220
     24 C         141.8494  137.9574  161.7315 C.ar    1  UNL1        0.1933
     25 N         141.4407  138.1299  163.1644 N.ar    1  UNL1       -0.2860
     26 C         142.3679  138.3007  164.3311 C.3     1  UNL1        0.1341
     27 C         138.4882  140.8319  164.2656 C.3     1  UNL1        0.0556
     28 C         138.4395  139.4942  164.9425 C.ar    1  UNL1        0.1001
     29 N         137.7138  139.1766  166.2163 N.ar    1  UNL1       -0.2085
     30 C         137.9337  137.7254  166.5255 C.ar    1  UNL1        0.2849
     31 O         138.7952  137.1461  165.4429 O.2     1  UNL1       -0.4283
     32 C         139.1078  138.2393  164.4646 C.ar    1  UNL1        0.1964
@<TRIPOS>BOND
     1    27    28    1
     2    28    29   ar
     3    29    30   ar
     4    30    31   ar
     5    31    32   ar
     6    32    21    1
     7    21    22   ar
     8    22    23   ar
     9    23    24   ar
    10    24    20    1
    11    20    19    1
    12    19    18    1
    13    18     1    1
    14     1     2    1
    15     2     3    1
    16     4     3    1
    17     4     5    1
    18     5     6    1
    19     6     8    1
    20     8     9   ar
    21     9    10   ar
    22    10    11   ar
    23    11    14    1
    24    14    15    1
    25    14    16    1
    26    14    17    1
    27    11    12   ar
    28    12    13   ar
    29     6     7    1
    30    24    25   ar
    31    25    26    1
    32    32    28   ar
    33    25    21   ar
    34     7     2    1
    35     6     4    1
    36    13     8   ar
@<TRIPOS>MOLECULE
*****
 32 36 0 0 0
SMALL
GASTEIGER

@<TRIPOS>ATOM
      1 C         140.7574  137.8422  162.0554 C.3     1  UNL1        0.0730
      2 N         142.0009  138.3909  162.6899 N.3     1  UNL1       -0.2724
      3 C         143.3979  138.2441  162.1637 C.3     1  UNL1        0.0724
      4 C         144.3261  138.9453  163.1107 C.3     1  UNL1        0.0214
      5 C         144.9912  139.7106  164.2160 C.3     1  UNL1        0.0072
      6 C         143.5028  139.5255  164.2222 C.3     1  UNL1        0.0350
      7 C         142.0657  139.1829  163.9621 C.3     1  UNL1        0.0761
      8 C         143.2564  140.2788  165.4957 C.ar    1  UNL1       -0.0215
      9 C         143.4855  141.7603  165.5471 C.ar    1  UNL1       -0.0046
     10 C         143.2391  142.5136  166.8207 C.ar    1  UNL1       -0.0046
     11 C         142.7636  141.7854  168.0428 C.ar    1  UNL1       -0.0228
     12 C         142.5345  140.3038  167.9914 C.ar    1  UNL1       -0.0046
     13 C         142.7809  139.5506  166.7179 C.ar    1  UNL1       -0.0046
     14 C         142.5173  142.5387  169.3163 C.3     1  UNL1        0.0189
     15 C         141.0881  142.7518  168.9138 C.3     1  UNL1        0.0044
     16 C         143.9464  142.3255  169.7189 C.3     1  UNL1        0.0044
     17 C         142.2709  143.2919  170.5898 C.3     1  UNL1        0.0044
     18 C         139.4223  138.0738  162.6985 C.3     1  UNL1        0.0294
     19 C         138.1681  137.9660  161.8828 C.3     1  UNL1        0.0666
     20 S         137.6366  139.1693  161.1619 S.3     1  UNL1       -0.0756
     21 C         138.5252  142.7898  162.2426 C.ar    1  UNL1        0.2029
     22 N         137.4203  142.4634  163.2032 N.ar    1  UNL1       -0.1250
     23 N         136.9530  141.0676  162.9153 N.ar    1  UNL1       -0.1220
     24 C         137.7690  140.5311  161.7767 C.ar    1  UNL1        0.1933
     25 N         138.7406  141.5955  161.3610 N.ar    1  UNL1       -0.2860
     26 C         139.7505  141.4850  160.2573 C.3     1  UNL1        0.1341
     27 C         141.7004  143.1904  162.8807 C.3     1  UNL1        0.0556
     28 C         140.7411  144.2674  162.4686 C.ar    1  UNL1        0.1001
     29 N         141.0730  145.7177  162.2776 N.ar    1  UNL1       -0.2085
     30 C         139.8186  146.4299  161.8662 C.ar    1  UNL1        0.2849
     31 O         138.7116  145.4198  161.8030 O.2     1  UNL1       -0.4283
     32 C         139.2817  144.0833  162.1753 C.ar    1  UNL1        0.1964
@<TRIPOS>BOND
     1    27    28    1
     2    28    29   ar
     3    29    30   ar
     4    30    31   ar
     5    31    32   ar
     6    32    21    1
     7    21    22   ar
     8    22    23   ar
     9    23    24   ar
    10    24    20    1
    11    20    19    1
    12    19    18    1
    13    18     1    1
    14     1     2    1
    15     2     3    1
    16     4     3    1
    17     4     5    1
    18     5     6    1
    19     6     8    1
    20     8     9   ar
    21     9    10   ar
    22    10    11   ar
    23    11    14    1
    24    14    15    1
    25    14    16    1
    26    14    17    1
    27    11    12   ar
    28    12    13   ar
    29     6     7    1
    30    24    25   ar
    31    25    26    1
    32    32    28   ar
    33    25    21   ar
    34     7     2    1
    35     6     4    1
    36    13     8   ar
@<TRIPOS>MOLECULE
*****
 32 36 0 0 0
SMALL
GASTEIGER

@<TRIPOS>ATOM
      1 C         137.3179  141.5095  162.4935 C.3     1  UNL1        0.0730
      2 N         138.0492  140.3360  163.0751 N.3     1  UNL1       -0.2724
      3 C         138.1158  138.9583  162.4857 C.3     1  UNL1        0.0724
      4 C         138.9501  138.1051  163.3944 C.3     1  UNL1        0.0214
      5 C         139.8080  137.5141  164.4736 C.3     1  UNL1        0.0072
      6 C         139.3992  138.9555  164.5456 C.3     1  UNL1        0.0350
      7 C         138.8425  140.3343  164.3482 C.3     1  UNL1        0.0761
      8 C         140.1070  139.2551  165.8337 C.ar    1  UNL1       -0.0215
      9 C         141.5888  139.0480  165.9410 C.ar    1  UNL1       -0.0046
     10 C         142.2966  139.3476  167.2292 C.ar    1  UNL1       -0.0046
     11 C         141.5226  139.8543  168.4100 C.ar    1  UNL1       -0.0228
     12 C         140.0408  140.0613  168.3026 C.ar    1  UNL1       -0.0046
     13 C         139.3330  139.7617  167.0145 C.ar    1  UNL1       -0.0046
     14 C         142.2304  140.1539  169.6981 C.3     1  UNL1        0.0189
     15 C         142.7897  138.7622  169.7145 C.3     1  UNL1        0.0044
     16 C         141.6711  141.5456  169.6817 C.3     1  UNL1        0.0044
     17 C         142.9382  140.4535  170.9862 C.3     1  UNL1        0.0044
     18 C         138.0607  142.7728  162.1739 C.3     1  UNL1        0.0294
     19 C         137.7735  144.0272  162.9447 C.3     1  UNL1        0.0666
     20 S         138.8679  144.6973  163.7214 S.3     1  UNL1       -0.0756
     21 C         142.1100  142.6717  164.3928 C.ar    1  UNL1        0.2029
     22 N         141.4507  142.6181  165.7391 N.ar    1  UNL1       -0.1250
     23 N         140.1560  143.3703  165.6514 N.ar    1  UNL1       -0.1220
     24 C         140.0151  143.8889  164.2510 C.ar    1  UNL1        0.1933
     25 N         141.2228  143.4571  163.4732 N.ar    1  UNL1       -0.2860
     26 C         141.4953  143.7580  162.0291 C.3     1  UNL1        0.1341
     27 C         142.5325  140.0394  162.5107 C.3     1  UNL1        0.0556
     28 C         143.6198  140.8393  163.1649 C.ar    1  UNL1        0.1001
     29 N         145.0923  140.5697  163.0688 N.ar    1  UNL1       -0.2085
     30 C         145.8081  141.6130  163.8746 C.ar    1  UNL1        0.2849
     31 O         144.7781  142.5273  164.4686 O.2     1  UNL1       -0.4283
     32 C         143.4257  142.0492  164.0300 C.ar    1  UNL1        0.1964
@<TRIPOS>BOND
     1    27    28    1
     2    28    29   ar
     3    29    30   ar
     4    30    31   ar
     5    31    32   ar
     6    32    21    1
     7    21    22   ar
     8    22    23   ar
     9    23    24   ar
    10    24    20    1
    11    20    19    1
    12    19    18    1
    13    18     1    1
    14     1     2    1
    15     2     3    1
    16     4     3    1
    17     4     5    1
    18     5     6    1
    19     6     8    1
    20     8     9   ar
    21     9    10   ar
    22    10    11   ar
    23    11    14    1
    24    14    15    1
    25    14    16    1
    26    14    17    1
    27    11    12   ar
    28    12    13   ar
    29     6     7    1
    30    24    25   ar
    31    25    26    1
    32    32    28   ar
    33    25    21   ar
    34     7     2    1
    35     6     4    1
    36    13     8   ar
@<TRIPOS>MOLECULE
*****
 32 36 0 0 0
SMALL
GASTEIGER

@<TRIPOS>ATOM
      1 C         141.8644  144.5294  161.2267 C.3     1  UNL1        0.0730
      2 N         141.0013  144.5112  162.4533 N.3     1  UNL1       -0.2724
      3 C         139.6731  145.1910  162.6070 C.3     1  UNL1        0.0724
      4 C         139.1658  144.9098  163.9904 C.3     1  UNL1        0.0214
      5 C         138.9257  144.4672  165.4033 C.3     1  UNL1        0.0072
      6 C         140.1805  144.0563  164.6916 C.3     1  UNL1        0.0350
      7 C         141.3149  143.8099  163.7417 C.3     1  UNL1        0.0761
      8 C         140.7564  143.2691  165.8312 C.ar    1  UNL1       -0.0215
      9 C         140.0257  143.1991  167.1393 C.ar    1  UNL1       -0.0046
     10 C         140.6017  142.4119  168.2790 C.ar    1  UNL1       -0.0046
     11 C         141.9083  141.6947  168.1104 C.ar    1  UNL1       -0.0228
     12 C         142.6390  141.7647  166.8022 C.ar    1  UNL1       -0.0046
     13 C         142.0631  142.5519  165.6626 C.ar    1  UNL1       -0.0046
     14 C         142.4842  140.9075  169.2499 C.3     1  UNL1        0.0189
     15 C         143.4388  142.0273  169.5410 C.3     1  UNL1        0.0044
     16 C         141.5296  139.7877  168.9589 C.3     1  UNL1        0.0044
     17 C         143.0601  140.1203  170.3895 C.3     1  UNL1        0.0044
     18 C         141.2755  144.9104  159.9008 C.3     1  UNL1        0.0294
     19 C         140.0565  144.2011  159.3899 C.3     1  UNL1        0.0666
     20 S         139.8968  142.7268  159.6160 S.3     1  UNL1       -0.0756
     21 C         138.5016  141.0434  162.8229 C.ar    1  UNL1        0.2029
     22 N         137.3317  141.8838  162.4043 N.ar    1  UNL1       -0.1250
     23 N         137.7120  142.6166  161.1520 N.ar    1  UNL1       -0.1220
     24 C         139.1169  142.2292  160.7967 C.ar    1  UNL1        0.1933
     25 N         139.6048  141.2569  161.8294 N.ar    1  UNL1       -0.2860
     26 C         140.9585  140.6115  161.8627 C.3     1  UNL1        0.1341
     27 C         138.7705  137.7914  162.7787 C.3     1  UNL1        0.0556
     28 C         138.6818  138.6523  164.0040 C.ar    1  UNL1        0.1001
     29 N         138.7011  138.1694  165.4240 N.ar    1  UNL1       -0.2085
     30 C         138.5895  139.3657  166.3219 C.ar    1  UNL1        0.2849
     31 O         138.5011  140.5879  165.4569 O.2     1  UNL1       -0.4283
     32 C         138.5582  140.1469  164.0243 C.ar    1  UNL1        0.1964
@<TRIPOS>BOND
     1    27    28    1
     2    28    29   ar
     3    29    30   ar
     4    30    31   ar
     5    31    32   ar
     6    32    21    1
     7    21    22   ar
     8    22    23   ar
     9    23    24   ar
    10    24    20    1
    11    20    19    1
    12    19    18    1
    13    18     1    1
    14     1     2    1
    15     2     3    1
    16     4     3    1
    17     4     5    1
    18     5     6    1
    19     6     8    1
    20     8     9   ar
    21     9    10   ar
    22    10    11   ar
    23    11    14    1
    24    14    15    1
    25    14    16    1
    26    14    17    1
    27    11    12   ar
    28    12    13   ar
    29     6     7    1
    30    24    25   ar
    31    25    26    1
    32    32    28   ar
    33    25    21   ar
    34     7     2    1
    35     6     4    1
    36    13     8   ar
@<TRIPOS>MOLECULE
*****
 32 36 0 0 0
SMALL
GASTEIGER

@<TRIPOS>ATOM
      1 C         141.6050  138.1949  161.7036 C.3     1  UNL1        0.0730
      2 N         140.7199  138.2802  162.9117 N.3     1  UNL1       -0.2724
      3 C         139.4086  137.5753  163.0955 C.3     1  UNL1        0.0724
      4 C         138.8690  137.9447  164.4454 C.3     1  UNL1        0.0214
      5 C         138.5914  138.4851  165.8169 C.3     1  UNL1        0.0072
      6 C         139.8468  138.8778  165.0960 C.3     1  UNL1        0.0350
      7 C         140.9907  139.0851  164.1481 C.3     1  UNL1        0.0761
      8 C         140.3800  139.7649  166.1816 C.ar    1  UNL1       -0.0215
      9 C         139.5326  140.0764  167.3795 C.ar    1  UNL1       -0.0046
     10 C         140.0659  140.9636  168.4652 C.ar    1  UNL1       -0.0046
     11 C         141.4465  141.5391  168.3530 C.ar    1  UNL1       -0.0228
     12 C         142.2939  141.2276  167.1551 C.ar    1  UNL1       -0.0046
     13 C         141.7607  140.3405  166.0694 C.ar    1  UNL1       -0.0046
     14 C         141.9798  142.4262  169.4387 C.3     1  UNL1        0.0189
     15 C         143.2271  141.5957  169.5047 C.3     1  UNL1        0.0044
     16 C         140.7325  143.2568  169.3727 C.3     1  UNL1        0.0044
     17 C         142.5130  143.3133  170.5244 C.3     1  UNL1        0.0044
     18 C         143.0261  137.7367  161.8459 C.3     1  UNL1        0.0294
     19 C         144.0534  138.6527  162.4424 C.3     1  UNL1        0.0666
     20 S         144.2581  140.0240  161.8700 S.3     1  UNL1       -0.0756
     21 C         142.1439  143.0592  163.0458 C.ar    1  UNL1        0.2029
     22 N         143.2254  143.0393  164.0851 N.ar    1  UNL1       -0.1250
     23 N         144.1489  141.8999  163.7711 N.ar    1  UNL1       -0.1220
     24 C         143.6383  141.2156  162.5378 C.ar    1  UNL1        0.1933
     25 N         142.3991  141.9322  162.0896 N.ar    1  UNL1       -0.2860
     26 C         141.5621  141.5829  160.8948 C.3     1  UNL1        0.1341
     27 C         139.7687  143.4002  165.2576 C.3     1  UNL1        0.0556
     28 C         139.9151  144.1918  163.9918 C.ar    1  UNL1        0.1001
     29 N         138.9954  145.2790  163.5206 N.ar    1  UNL1       -0.2085
     30 C         139.5188  145.7942  162.2127 C.ar    1  UNL1        0.2849
     31 O         140.7618  145.0254  161.8757 O.2     1  UNL1       -0.4283
     32 C         141.0068  144.0351  162.9753 C.ar    1  UNL1        0.1964
@<TRIPOS>BOND
     1    27    28    1
     2    28    29   ar
     3    29    30   ar
     4    30    31   ar
     5    31    32   ar
     6    32    21    1
     7    21    22   ar
     8    22    23   ar
     9    23    24   ar
    10    24    20    1
    11    20    19    1
    12    19    18    1
    13    18     1    1
    14     1     2    1
    15     2     3    1
    16     4     3    1
    17     4     5    1
    18     5     6    1
    19     6     8    1
    20     8     9   ar
    21     9    10   ar
    22    10    11   ar
    23    11    14    1
    24    14    15    1
    25    14    16    1
    26    14    17    1
    27    11    12   ar
    28    12    13   ar
    29     6     7    1
    30    24    25   ar
    31    25    26    1
    32    32    28   ar
    33    25    21   ar
    34     7     2    1
    35     6     4    1
    36    13     8   ar
@<TRIPOS>MOLECULE
*****
 32 36 0 0 0
SMALL
GASTEIGER

@<TRIPOS>ATOM
      1 C         142.8199  143.6166  161.3579 C.3     1  UNL1        0.0730
      2 N         143.4407  142.5349  162.1914 N.3     1  UNL1       -0.2724
      3 C         144.4604  141.5384  161.7254 C.3     1  UNL1        0.0724
      4 C         144.8006  140.6473  162.8831 C.3     1  UNL1        0.0214
      5 C         144.9335  139.9335  164.1957 C.3     1  UNL1        0.0072
      6 C         143.9912  141.0932  164.0647 C.3     1  UNL1        0.0350
      7 C         143.1507  142.2597  163.6371 C.3     1  UNL1        0.0761
      8 C         143.5042  141.0605  165.4830 C.ar    1  UNL1       -0.0215
      9 C         143.5108  142.3137  166.3073 C.ar    1  UNL1       -0.0046
     10 C         143.0238  142.2810  167.7257 C.ar    1  UNL1       -0.0046
     11 C         142.5302  140.9952  168.3198 C.ar    1  UNL1       -0.0228
     12 C         142.5236  139.7419  167.4954 C.ar    1  UNL1       -0.0046
     13 C         143.0106  139.7746  166.0771 C.ar    1  UNL1       -0.0046
     14 C         142.0432  140.9625  169.7382 C.3     1  UNL1        0.0189
     15 C         141.6176  142.3963  169.6251 C.3     1  UNL1        0.0044
     16 C         142.4688  139.5286  169.8513 C.3     1  UNL1        0.0044
     17 C         141.5562  140.9298  171.1565 C.3     1  UNL1        0.0044
     18 C         142.3595  143.3169  159.9622 C.3     1  UNL1        0.0294
     19 C         141.0247  143.8125  159.4902 C.3     1  UNL1        0.0666
     20 S         139.8223  142.9191  159.5691 S.3     1  UNL1       -0.0756
     21 C         138.7093  141.5396  163.0221 C.ar    1  UNL1        0.2029
     22 N         137.7990  142.7227  162.8755 N.ar    1  UNL1       -0.1250
     23 N         138.1051  143.3835  161.5642 N.ar    1  UNL1       -0.1220
     24 C         139.2046  142.6088  160.9003 C.ar    1  UNL1        0.1933
     25 N         139.5780  141.4692  161.8013 N.ar    1  UNL1       -0.2860
     26 C         140.6347  140.4399  161.5293 C.3     1  UNL1        0.1341
     27 C         139.8071  142.2227  166.0184 C.3     1  UNL1        0.0556
     28 C         139.2493  140.9070  165.5624 C.ar    1  UNL1        0.1001
     29 N         139.0982  139.6744  166.4037 N.ar    1  UNL1       -0.2085
     30 C         138.5001  138.5986  165.5464 C.ar    1  UNL1        0.2849
     31 O         138.2817  139.1663  164.1753 O.2     1  UNL1       -0.4283
     32 C         138.7447  140.5931  164.1853 C.ar    1  UNL1        0.1964
@<TRIPOS>BOND
     1    27    28    1
     2    28    29   ar
     3    29    30   ar
     4    30    31   ar
     5    31    32   ar
     6    32    21    1
     7    21    22   ar
     8    22    23   ar
     9    23    24   ar
    10    24    20    1
    11    20    19    1
    12    19    18    1
    13    18     1    1
    14     1     2    1
    15     2     3    1
    16     4     3    1
    17     4     5    1
    18     5     6    1
    19     6     8    1
    20     8     9   ar
    21     9    10   ar
    22    10    11   ar
    23    11    14    1
    24    14    15    1
    25    14    16    1
    26    14    17    1
    27    11    12   ar
    28    12    13   ar
    29     6     7    1
    30    24    25   ar
    31    25    26    1
    32    32    28   ar
    33    25    21   ar
    34     7     2    1
    35     6     4    1
    36    13     8   ar
@<TRIPOS>MOLECULE
*****
 32 36 0 0 0
SMALL
GASTEIGER

@<TRIPOS>ATOM
      1 C         137.8067  140.5514  161.4389 C.3     1  UNL1        0.0730
      2 N         138.4326  139.5891  162.4044 N.3     1  UNL1       -0.2724
      3 C         138.3291  138.0936  162.3509 C.3     1  UNL1        0.0724
      4 C         139.1044  137.5335  163.5064 C.3     1  UNL1        0.0214
      5 C         139.9379  137.2749  164.7264 C.3     1  UNL1        0.0072
      6 C         139.6872  138.6829  164.2741 C.3     1  UNL1        0.0350
      7 C         139.2720  139.9532  163.5930 C.3     1  UNL1        0.0761
      8 C         140.4742  139.3414  165.3681 C.ar    1  UNL1       -0.0215
      9 C         141.9282  139.0182  165.5450 C.ar    1  UNL1       -0.0046
     10 C         142.7153  139.6768  166.6391 C.ar    1  UNL1       -0.0046
     11 C         142.0482  140.6586  167.5562 C.ar    1  UNL1       -0.0228
     12 C         140.5941  140.9818  167.3793 C.ar    1  UNL1       -0.0046
     13 C         139.8071  140.3232  166.2853 C.ar    1  UNL1       -0.0046
     14 C         142.8352  141.3172  168.6503 C.3     1  UNL1        0.0189
     15 C         143.1767  142.4469  167.7245 C.3     1  UNL1        0.0044
     16 C         142.4937  140.1874  169.5760 C.3     1  UNL1        0.0044
     17 C         143.6222  141.9757  169.7443 C.3     1  UNL1        0.0044
     18 C         137.8354  140.2625  159.9673 C.3     1  UNL1        0.0294
     19 C         138.8738  140.9058  159.0968 C.3     1  UNL1        0.0666
     20 S         140.1871  140.2193  158.8638 S.3     1  UNL1       -0.0756
     21 C         142.7714  140.3539  161.7565 C.ar    1  UNL1        0.2029
     22 N         142.3707  138.9089  161.7928 N.ar    1  UNL1       -0.1250
     23 N         141.3539  138.6826  160.7137 N.ar    1  UNL1       -0.1220
     24 C         141.1261  139.9877  160.0103 C.ar    1  UNL1        0.1933
     25 N         142.0022  141.0207  160.6549 N.ar    1  UNL1       -0.2860
     26 C         142.0931  142.4665  160.2660 C.3     1  UNL1        0.1341
     27 C         142.0835  142.4850  164.1303 C.3     1  UNL1        0.0556
     28 C         143.4505  141.9955  163.7538 C.ar    1  UNL1        0.1001
     29 N         144.7412  142.3996  164.4024 N.ar    1  UNL1       -0.2085
     30 C         145.8551  141.6697  163.7122 C.ar    1  UNL1        0.2849
     31 O         145.2529  140.8147  162.6371 O.2     1  UNL1       -0.4283
     32 C         143.7667  141.0160  162.6628 C.ar    1  UNL1        0.1964
@<TRIPOS>BOND
     1    27    28    1
     2    28    29   ar
     3    29    30   ar
     4    30    31   ar
     5    31    32   ar
     6    32    21    1
     7    21    22   ar
     8    22    23   ar
     9    23    24   ar
    10    24    20    1
    11    20    19    1
    12    19    18    1
    13    18     1    1
    14     1     2    1
    15     2     3    1
    16     4     3    1
    17     4     5    1
    18     5     6    1
    19     6     8    1
    20     8     9   ar
    21     9    10   ar
    22    10    11   ar
    23    11    14    1
    24    14    15    1
    25    14    16    1
    26    14    17    1
    27    11    12   ar
    28    12    13   ar
    29     6     7    1
    30    24    25   ar
    31    25    26    1
    32    32    28   ar
    33    25    21   ar
    34     7     2    1
    35     6     4    1
    36    13     8   ar
