@<TRIPOS>MOLECULE
*****
 27 30 0 0 0
SMALL
GASTEIGER

@<TRIPOS>ATOM
      1 C         140.6534  140.5506  169.8195 C.2     1  UNL1        0.1339
      2 C         141.2950  140.5717  168.4638 C.2     1  UNL1        0.0249
      3 C         140.3145  140.0087  167.4781 C.2     1  UNL1        0.0152
      4 C         140.3966  139.7844  165.9972 C.2     1  UNL1       -0.0033
      5 C         139.2310  139.1910  165.2629 C.2     1  UNL1       -0.0250
      6 C         137.9834  138.8219  166.0094 C.2     1  UNL1       -0.0240
      7 C         137.9014  139.0462  167.4902 C.3     1  UNL1        0.0714
      8 C         139.0669  139.6396  168.2246 C.2     1  UNL1        0.0635
      9 N         139.2764  139.9745  169.6716 N.2     1  UNL1       -0.2448
     10 C         139.3130  138.9667  163.7820 C.3     1  UNL1        0.0385
     11 C         139.1722  138.9628  162.2886 C.3     1  UNL1        0.0228
     12 C         140.1336  137.9533  161.7351 C.3     1  UNL1        0.0689
     13 N         140.8687  137.3333  162.8862 N.3     1  UNL1       -0.2972
     14 C         140.3615  137.9597  164.1514 C.3     1  UNL1        0.0729
     15 H         141.8694  137.5062  162.7914 H       1  UNL1        0.1233
     16 C         138.2474  140.0207  163.7222 C.3     1  UNL1        0.0317
     17 C         138.6246  141.4719  163.7645 C.ar    1  UNL1       -0.0218
     18 C         139.8636  141.9454  163.0639 C.ar    1  UNL1       -0.0043
     19 C         140.2409  143.3966  163.1061 C.ar    1  UNL1       -0.0003
     20 C         139.3792  144.3742  163.8489 C.ar    1  UNL1       -0.0000
     21 C         138.1403  143.9008  164.5495 C.ar    1  UNL1       -0.0003
     22 C         137.7630  142.4495  164.5073 C.ar    1  UNL1       -0.0043
     23 N         142.5831  140.4392  171.5556 N.am    1  UNL1       -0.3241
     24 C         141.2790  141.0227  171.0985 C.2     1  UNL1        0.2605
     25 O         140.6006  142.0782  171.9203 O.2     1  UNL1       -0.2687
     26 H         142.9937  140.7491  172.3950 H       1  UNL1        0.1453
     27 H         143.0284  139.7465  171.0162 H       1  UNL1        0.1453
@<TRIPOS>BOND
     1    23    24   am
     2    24    25    2
     3    24     1    1
     4     1     2    2
     5     2     3    1
     6     3     4    2
     7     4     5    1
     8     5    10    1
     9    10    16    1
    10    16    17    1
    11    17    18   ar
    12    18    19   ar
    13    19    20   ar
    14    20    21   ar
    15    21    22   ar
    16    10    11    1
    17    11    12    1
    18    12    13    1
    19    13    14    1
    20     5     6    2
    21     6     7    1
    22     7     8    1
    23     8     9    2
    24     9     1    1
    25     8     3    1
    26    14    10    1
    27    22    17   ar
    28    23    26    1
    29    23    27    1
    30    13    15    1
@<TRIPOS>MOLECULE
*****
 27 30 0 0 0
SMALL
GASTEIGER

@<TRIPOS>ATOM
      1 C         140.8567  144.7818  162.7559 C.2     1  UNL1        0.1339
      2 C         139.9160  144.4620  163.8796 C.2     1  UNL1        0.0249
      3 C         140.6816  143.7043  164.9236 C.2     1  UNL1        0.0152
      4 C         140.2739  143.1304  166.2481 C.2     1  UNL1       -0.0033
      5 C         141.2800  142.4080  167.0941 C.2     1  UNL1       -0.0250
      6 C         142.6939  142.2596  166.6156 C.2     1  UNL1       -0.0240
      7 C         143.1016  142.8335  165.2911 C.3     1  UNL1        0.0714
      8 C         142.0954  143.5559  164.4451 C.2     1  UNL1        0.0635
      9 N         142.2037  144.2218  163.1054 N.2     1  UNL1       -0.2448
     10 C         140.8724  141.8341  168.4187 C.3     1  UNL1        0.0385
     11 C         140.5669  140.9902  169.6206 C.3     1  UNL1        0.0228
     12 C         139.9748  141.8798  170.6732 C.3     1  UNL1        0.0689
     13 N         139.9144  143.2735  170.1219 N.3     1  UNL1       -0.2972
     14 C         140.4691  143.2452  168.7286 C.3     1  UNL1        0.0729
     15 H         140.4708  143.9001  170.7034 H       1  UNL1        0.1233
     16 C         141.3609  140.5429  167.8319 C.3     1  UNL1        0.0317
     17 C         140.4491  139.7164  166.9743 C.ar    1  UNL1       -0.0218
     18 C         138.9932  139.6048  167.3180 C.ar    1  UNL1       -0.0043
     19 C         138.0814  138.7783  166.4604 C.ar    1  UNL1       -0.0003
     20 C         138.6254  138.0634  165.2591 C.ar    1  UNL1       -0.0000
     21 C         140.0812  138.1751  164.9154 C.ar    1  UNL1       -0.0003
     22 C         140.9931  139.0016  165.7731 C.ar    1  UNL1       -0.0043
     23 N         141.4497  145.5078  160.3328 N.am    1  UNL1       -0.3241
     24 C         140.5112  145.5303  161.5027 C.2     1  UNL1        0.2605
     25 O         139.2272  146.3011  161.4194 O.2     1  UNL1       -0.2687
     26 H         141.2229  145.9991  159.5103 H       1  UNL1        0.1453
     27 H         142.2924  145.0019  160.3875 H       1  UNL1        0.1453
@<TRIPOS>BOND
     1    23    24   am
     2    24    25    2
     3    24     1    1
     4     1     2    2
     5     2     3    1
     6     3     4    2
     7     4     5    1
     8     5    10    1
     9    10    16    1
    10    16    17    1
    11    17    18   ar
    12    18    19   ar
    13    19    20   ar
    14    20    21   ar
    15    21    22   ar
    16    10    11    1
    17    11    12    1
    18    12    13    1
    19    13    14    1
    20     5     6    2
    21     6     7    1
    22     7     8    1
    23     8     9    2
    24     9     1    1
    25     8     3    1
    26    14    10    1
    27    22    17   ar
    28    23    26    1
    29    23    27    1
    30    13    15    1
@<TRIPOS>MOLECULE
*****
 27 30 0 0 0
SMALL
GASTEIGER

@<TRIPOS>ATOM
      1 C         141.4481  141.8315  169.6403 C.2     1  UNL1        0.1339
      2 C         140.3380  142.6331  169.0277 C.2     1  UNL1        0.0249
      3 C         140.6484  142.8178  167.5719 C.2     1  UNL1        0.0152
      4 C         139.9137  143.5231  166.4706 C.2     1  UNL1       -0.0033
      5 C         140.4809  143.5411  165.0822 C.2     1  UNL1       -0.0250
      6 C         141.7828  142.8537  164.7949 C.2     1  UNL1       -0.0240
      7 C         142.5175  142.1484  165.8961 C.3     1  UNL1        0.0714
      8 C         141.9503  142.1305  167.2846 C.2     1  UNL1        0.0635
      9 N         142.4445  141.5209  168.5630 N.2     1  UNL1       -0.2448
     10 C         139.7462  144.2464  163.9809 C.3     1  UNL1        0.0385
     11 C         138.7725  144.7681  162.9661 C.3     1  UNL1        0.0228
     12 C         139.4676  145.8216  162.1556 C.3     1  UNL1        0.0689
     13 N         140.8708  145.9511  162.6694 N.3     1  UNL1       -0.2972
     14 C         141.0431  144.9776  163.7975 C.3     1  UNL1        0.0729
     15 H         141.0304  146.9011  163.0046 H       1  UNL1        0.1233
     16 C         138.6030  143.3678  164.3945 C.3     1  UNL1        0.0317
     17 C         138.3942  142.0429  163.7229 C.ar    1  UNL1       -0.0218
     18 C         137.9206  141.9893  162.3006 C.ar    1  UNL1       -0.0043
     19 C         137.7119  140.6644  161.6290 C.ar    1  UNL1       -0.0003
     20 C         137.9767  139.3931  162.3797 C.ar    1  UNL1       -0.0000
     21 C         138.4503  139.4466  163.8020 C.ar    1  UNL1       -0.0003
     22 C         138.6591  140.7716  164.4736 C.ar    1  UNL1       -0.0043
     23 N         142.5311  140.3610  171.4881 N.am    1  UNL1       -0.3241
     24 C         141.5448  141.4139  171.0777 C.2     1  UNL1        0.2605
     25 O         140.6552  142.0493  172.1048 O.2     1  UNL1       -0.2687
     26 H         142.5945  140.0869  172.4316 H       1  UNL1        0.1453
     27 H         143.1150  139.9440  170.8141 H       1  UNL1        0.1453
@<TRIPOS>BOND
     1    23    24   am
     2    24    25    2
     3    24     1    1
     4     1     2    2
     5     2     3    1
     6     3     4    2
     7     4     5    1
     8     5    10    1
     9    10    16    1
    10    16    17    1
    11    17    18   ar
    12    18    19   ar
    13    19    20   ar
    14    20    21   ar
    15    21    22   ar
    16    10    11    1
    17    11    12    1
    18    12    13    1
    19    13    14    1
    20     5     6    2
    21     6     7    1
    22     7     8    1
    23     8     9    2
    24     9     1    1
    25     8     3    1
    26    14    10    1
    27    22    17   ar
    28    23    26    1
    29    23    27    1
    30    13    15    1
@<TRIPOS>MOLECULE
*****
 27 30 0 0 0
SMALL
GASTEIGER

@<TRIPOS>ATOM
      1 C         140.6134  140.9755  169.7891 C.2     1  UNL1        0.1339
      2 C         140.9251  141.7778  168.5606 C.2     1  UNL1        0.0249
      3 C         140.1685  141.1795  167.4119 C.2     1  UNL1        0.0152
      4 C         140.0886  141.5505  165.9607 C.2     1  UNL1       -0.0033
      5 C         139.2293  140.7495  165.0281 C.2     1  UNL1       -0.0250
      6 C         138.4500  139.5773  165.5465 C.2     1  UNL1       -0.0240
      7 C         138.5300  139.2063  166.9977 C.3     1  UNL1        0.0714
      8 C         139.3892  140.0074  167.9304 C.2     1  UNL1        0.0635
      9 N         139.6642  139.8813  169.3996 N.2     1  UNL1       -0.2448
     10 C         139.1493  141.1205  163.5768 C.3     1  UNL1        0.0385
     11 C         139.3808  141.5192  162.1494 C.3     1  UNL1        0.0228
     12 C         138.0508  141.5556  161.4568 C.3     1  UNL1        0.0689
     13 N         136.9973  141.1793  162.4561 N.3     1  UNL1       -0.2972
     14 C         137.6762  140.9104  163.7663 C.3     1  UNL1        0.0729
     15 H         136.5061  140.3422  162.1426 H       1  UNL1        0.1233
     16 C         140.6391  141.2530  163.6907 C.3     1  UNL1        0.0317
     17 C         141.5327  140.2035  163.0992 C.ar    1  UNL1       -0.0218
     18 C         142.8942  140.5767  162.5919 C.ar    1  UNL1       -0.0043
     19 C         143.7878  139.5273  162.0004 C.ar    1  UNL1       -0.0003
     20 C         143.3202  138.1045  161.9162 C.ar    1  UNL1       -0.0000
     21 C         141.9588  137.7312  162.4235 C.ar    1  UNL1       -0.0003
     22 C         141.0651  138.7808  163.0150 C.ar    1  UNL1       -0.0043
     23 N         142.4030  140.5241  171.6176 N.am    1  UNL1       -0.3241
     24 C         141.1556  141.2238  171.1654 C.2     1  UNL1        0.2605
     25 O         140.4505  142.1717  172.0896 O.2     1  UNL1       -0.2687
     26 H         142.7589  140.6871  172.5209 H       1  UNL1        0.1453
     27 H         142.8658  139.9019  171.0110 H       1  UNL1        0.1453
@<TRIPOS>BOND
     1    23    24   am
     2    24    25    2
     3    24     1    1
     4     1     2    2
     5     2     3    1
     6     3     4    2
     7     4     5    1
     8     5    10    1
     9    10    16    1
    10    16    17    1
    11    17    18   ar
    12    18    19   ar
    13    19    20   ar
    14    20    21   ar
    15    21    22   ar
    16    10    11    1
    17    11    12    1
    18    12    13    1
    19    13    14    1
    20     5     6    2
    21     6     7    1
    22     7     8    1
    23     8     9    2
    24     9     1    1
    25     8     3    1
    26    14    10    1
    27    22    17   ar
    28    23    26    1
    29    23    27    1
    30    13    15    1
@<TRIPOS>MOLECULE
*****
 27 30 0 0 0
SMALL
GASTEIGER

@<TRIPOS>ATOM
      1 C         139.9908  141.8020  169.4125 C.2     1  UNL1        0.1339
      2 C         139.5034  140.4927  168.8665 C.2     1  UNL1        0.0249
      3 C         139.6537  140.5278  167.3744 C.2     1  UNL1        0.0152
      4 C         139.3370  139.5198  166.3098 C.2     1  UNL1       -0.0033
      5 C         139.6008  139.8429  164.8689 C.2     1  UNL1       -0.0250
      6 C         140.1812  141.1739  164.4928 C.2     1  UNL1       -0.0240
      7 C         140.4978  142.1819  165.5575 C.3     1  UNL1        0.0714
      8 C         140.2341  141.8589  166.9983 C.2     1  UNL1        0.0635
      9 N         140.4424  142.6463  168.2579 N.2     1  UNL1       -0.2448
     10 C         139.2842  138.8348  163.8041 C.3     1  UNL1        0.0385
     11 C         139.1891  137.6562  162.8813 C.3     1  UNL1        0.0228
     12 C         138.1368  137.9548  161.8549 C.3     1  UNL1        0.0689
     13 N         137.5815  139.3179  162.1434 N.3     1  UNL1       -0.2972
     14 C         138.2906  139.8619  163.3481 C.3     1  UNL1        0.0729
     15 H         136.5811  139.2515  162.3312 H       1  UNL1        0.1233
     16 C         140.3439  138.0186  164.4827 C.3     1  UNL1        0.0317
     17 C         141.7892  138.3902  164.3305 C.ar    1  UNL1       -0.0218
     18 C         142.3613  138.6333  162.9653 C.ar    1  UNL1       -0.0043
     19 C         143.8065  139.0049  162.8130 C.ar    1  UNL1       -0.0003
     20 C         144.6797  139.1334  164.0259 C.ar    1  UNL1       -0.0000
     21 C         144.1076  138.8903  165.3910 C.ar    1  UNL1       -0.0003
     22 C         142.6623  138.5187  165.5434 C.ar    1  UNL1       -0.0043
     23 N         139.2730  143.4128  171.3203 N.am    1  UNL1       -0.3241
     24 C         140.0214  142.1974  170.8591 C.2     1  UNL1        0.2605
     25 O         140.8003  141.3776  171.8445 O.2     1  UNL1       -0.2687
     26 H         139.2930  143.6723  172.2698 H       1  UNL1        0.1453
     27 H         138.7617  143.9509  170.6736 H       1  UNL1        0.1453
@<TRIPOS>BOND
     1    23    24   am
     2    24    25    2
     3    24     1    1
     4     1     2    2
     5     2     3    1
     6     3     4    2
     7     4     5    1
     8     5    10    1
     9    10    16    1
    10    16    17    1
    11    17    18   ar
    12    18    19   ar
    13    19    20   ar
    14    20    21   ar
    15    21    22   ar
    16    10    11    1
    17    11    12    1
    18    12    13    1
    19    13    14    1
    20     5     6    2
    21     6     7    1
    22     7     8    1
    23     8     9    2
    24     9     1    1
    25     8     3    1
    26    14    10    1
    27    22    17   ar
    28    23    26    1
    29    23    27    1
    30    13    15    1
@<TRIPOS>MOLECULE
*****
 27 30 0 0 0
SMALL
GASTEIGER

@<TRIPOS>ATOM
      1 C         140.5957  140.0952  169.4784 C.2     1  UNL1        0.1339
      2 C         141.8781  139.6193  168.8629 C.2     1  UNL1        0.0249
      3 C         141.7351  139.7010  167.3720 C.2     1  UNL1        0.0152
      4 C         142.6760  139.3641  166.2535 C.2     1  UNL1       -0.0033
      5 C         142.2461  139.5536  164.8290 C.2     1  UNL1       -0.0250
      6 C         140.8753  140.0801  164.5230 C.2     1  UNL1       -0.0240
      7 C         139.9344  140.4171  165.6415 C.3     1  UNL1        0.0714
      8 C         140.3643  140.2275  167.0660 C.2     1  UNL1        0.0635
      9 N         139.6601  140.4711  168.3678 N.2     1  UNL1       -0.2448
     10 C         143.1871  139.2167  163.7104 C.3     1  UNL1        0.0385
     11 C         144.3159  139.0889  162.7309 C.3     1  UNL1        0.0228
     12 C         143.9182  138.0801  161.6944 C.3     1  UNL1        0.0689
     13 N         142.5437  137.5845  162.0333 N.3     1  UNL1       -0.2972
     14 C         142.0918  138.2869  163.2793 C.3     1  UNL1        0.0729
     15 H         142.5685  136.5774  162.1934 H       1  UNL1        0.1233
     16 C         144.0857  140.2169  164.3753 C.3     1  UNL1        0.0317
     17 C         143.9701  141.6728  164.0333 C.ar    1  UNL1       -0.0218
     18 C         144.1984  142.7121  165.0907 C.ar    1  UNL1       -0.0043
     19 C         144.0829  144.1679  164.7487 C.ar    1  UNL1       -0.0003
     20 C         143.7389  144.5847  163.3494 C.ar    1  UNL1       -0.0000
     21 C         143.5106  143.5455  162.2920 C.ar    1  UNL1       -0.0003
     22 C         143.6262  142.0895  162.6340 C.ar    1  UNL1       -0.0043
     23 N         139.5809  139.0576  171.6333 N.am    1  UNL1       -0.3241
     24 C         140.3006  140.1803  170.9466 C.2     1  UNL1        0.2605
     25 O         140.7253  141.3881  171.7282 O.2     1  UNL1       -0.2687
     26 H         139.3873  139.1135  172.5969 H       1  UNL1        0.1453
     27 H         139.3022  138.2649  171.1203 H       1  UNL1        0.1453
@<TRIPOS>BOND
     1    23    24   am
     2    24    25    2
     3    24     1    1
     4     1     2    2
     5     2     3    1
     6     3     4    2
     7     4     5    1
     8     5    10    1
     9    10    16    1
    10    16    17    1
    11    17    18   ar
    12    18    19   ar
    13    19    20   ar
    14    20    21   ar
    15    21    22   ar
    16    10    11    1
    17    11    12    1
    18    12    13    1
    19    13    14    1
    20     5     6    2
    21     6     7    1
    22     7     8    1
    23     8     9    2
    24     9     1    1
    25     8     3    1
    26    14    10    1
    27    22    17   ar
    28    23    26    1
    29    23    27    1
    30    13    15    1
@<TRIPOS>MOLECULE
*****
 27 30 0 0 0
SMALL
GASTEIGER

@<TRIPOS>ATOM
      1 C         142.1386  139.9791  169.3661 C.2     1  UNL1        0.1339
      2 C         140.7623  140.1656  168.7995 C.2     1  UNL1        0.0249
      3 C         140.8062  139.8008  167.3452 C.2     1  UNL1        0.0152
      4 C         139.7496  139.7906  166.2806 C.2     1  UNL1       -0.0033
      5 C         140.0965  139.3683  164.8837 C.2     1  UNL1       -0.0250
      6 C         141.5000  138.9563  164.5514 C.2     1  UNL1       -0.0240
      7 C         142.5566  138.9665  165.6160 C.3     1  UNL1        0.0714
      8 C         142.2097  139.3888  167.0129 C.2     1  UNL1        0.0635
      9 N         143.0331  139.4990  168.2619 N.2     1  UNL1       -0.2448
     10 C         139.0399  139.3581  163.8190 C.3     1  UNL1        0.0385
     11 C         137.8832  139.6084  162.8974 C.3     1  UNL1        0.0228
     12 C         137.8681  138.5192  161.8662 C.3     1  UNL1        0.0689
     13 N         139.0155  137.5958  162.1504 N.3     1  UNL1       -0.2972
     14 C         139.7397  138.1143  163.3573 C.3     1  UNL1        0.0729
     15 H         139.6479  137.5731  161.3504 H       1  UNL1        0.1233
     16 C         138.5610  140.6041  164.5033 C.3     1  UNL1        0.0317
     17 C         138.7382  141.9385  163.8415 C.ar    1  UNL1       -0.0218
     18 C         140.0067  142.2467  163.1026 C.ar    1  UNL1       -0.0043
     19 C         140.1839  143.5811  162.4408 C.ar    1  UNL1       -0.0003
     20 C         139.0925  144.6073  162.5178 C.ar    1  UNL1       -0.0000
     21 C         137.8240  144.2991  163.2567 C.ar    1  UNL1       -0.0003
     22 C         137.6468  142.9646  163.9185 C.ar    1  UNL1       -0.0043
     23 N         143.8139  139.6252  171.3200 N.am    1  UNL1       -0.3241
     24 C         142.5483  140.2288  170.7872 C.2     1  UNL1        0.2605
     25 O         141.6925  141.0820  171.6757 O.2     1  UNL1       -0.2687
     26 H         144.0828  139.7890  172.2527 H       1  UNL1        0.1453
     27 H         144.3757  139.0651  170.7369 H       1  UNL1        0.1453
@<TRIPOS>BOND
     1    23    24   am
     2    24    25    2
     3    24     1    1
     4     1     2    2
     5     2     3    1
     6     3     4    2
     7     4     5    1
     8     5    10    1
     9    10    16    1
    10    16    17    1
    11    17    18   ar
    12    18    19   ar
    13    19    20   ar
    14    20    21   ar
    15    21    22   ar
    16    10    11    1
    17    11    12    1
    18    12    13    1
    19    13    14    1
    20     5     6    2
    21     6     7    1
    22     7     8    1
    23     8     9    2
    24     9     1    1
    25     8     3    1
    26    14    10    1
    27    22    17   ar
    28    23    26    1
    29    23    27    1
    30    13    15    1
@<TRIPOS>MOLECULE
*****
 27 30 0 0 0
SMALL
GASTEIGER

@<TRIPOS>ATOM
      1 C         140.1433  140.2812  168.8928 C.2     1  UNL1        0.1339
      2 C         139.9158  140.3246  167.4108 C.2     1  UNL1        0.0249
      3 C         141.1113  139.7154  166.7402 C.2     1  UNL1        0.0152
      4 C         141.4447  139.4888  165.2954 C.2     1  UNL1       -0.0033
      5 C         142.7446  138.8424  164.9182 C.2     1  UNL1       -0.0250
      6 C         143.7110  138.4225  165.9857 C.2     1  UNL1       -0.0240
      7 C         143.3776  138.6491  167.4305 C.3     1  UNL1        0.0714
      8 C         142.0777  139.2956  167.8077 C.2     1  UNL1        0.0635
      9 N         141.4795  139.6453  169.1381 N.2     1  UNL1       -0.2448
     10 C         143.0780  138.6157  163.4733 C.3     1  UNL1        0.0385
     11 C         143.6669  138.5586  162.0949 C.3     1  UNL1        0.0228
     12 C         142.7397  137.7598  161.2276 C.3     1  UNL1        0.0689
     13 N         141.5779  137.3232  162.0699 N.3     1  UNL1       -0.2972
     14 C         141.7870  137.8522  163.4579 C.3     1  UNL1        0.0729
     15 H         141.5293  136.3046  162.0913 H       1  UNL1        0.1233
     16 C         144.2994  139.4266  163.7908 C.3     1  UNL1        0.0317
     17 C         144.2992  140.9075  163.5523 C.ar    1  UNL1       -0.0218
     18 C         144.3683  141.4417  162.1523 C.ar    1  UNL1       -0.0043
     19 C         144.3682  142.9226  161.9138 C.ar    1  UNL1       -0.0003
     20 C         144.2990  143.8694  163.0752 C.ar    1  UNL1       -0.0000
     21 C         144.2299  143.3352  164.4752 C.ar    1  UNL1       -0.0003
     22 C         144.2300  141.8542  164.7138 C.ar    1  UNL1       -0.0043
     23 N         139.4228  142.1311  170.5687 N.am    1  UNL1       -0.3241
     24 C         139.2003  140.7853  169.9447 C.2     1  UNL1        0.2605
     25 O         138.0349  139.9436  170.3728 O.2     1  UNL1       -0.2687
     26 H         138.8038  142.4620  171.2591 H       1  UNL1        0.1453
     27 H         140.1877  142.6836  170.2877 H       1  UNL1        0.1453
@<TRIPOS>BOND
     1    23    24   am
     2    24    25    2
     3    24     1    1
     4     1     2    2
     5     2     3    1
     6     3     4    2
     7     4     5    1
     8     5    10    1
     9    10    16    1
    10    16    17    1
    11    17    18   ar
    12    18    19   ar
    13    19    20   ar
    14    20    21   ar
    15    21    22   ar
    16    10    11    1
    17    11    12    1
    18    12    13    1
    19    13    14    1
    20     5     6    2
    21     6     7    1
    22     7     8    1
    23     8     9    2
    24     9     1    1
    25     8     3    1
    26    14    10    1
    27    22    17   ar
    28    23    26    1
    29    23    27    1
    30    13    15    1
@<TRIPOS>MOLECULE
*****
 27 30 0 0 0
SMALL
GASTEIGER

@<TRIPOS>ATOM
      1 C         140.2674  141.2856  169.3598 C.2     1  UNL1        0.1339
      2 C         140.4669  142.6648  168.8048 C.2     1  UNL1        0.0249
      3 C         140.3361  142.5873  167.3125 C.2     1  UNL1        0.0152
      4 C         140.4361  143.6318  166.2406 C.2     1  UNL1       -0.0033
      5 C         140.2558  143.2492  164.8015 C.2     1  UNL1       -0.0250
      6 C         139.9755  141.8222  164.4343 C.2     1  UNL1       -0.0240
      7 C         139.8755  140.7776  165.5061 C.3     1  UNL1        0.0714
      8 C         140.0558  141.1602  166.9452 C.2     1  UNL1        0.0635
      9 N         140.0134  140.3558  168.2106 N.2     1  UNL1       -0.2448
     10 C         140.3557  144.2938  163.7295 C.3     1  UNL1        0.0385
     11 C         140.7406  145.3883  162.7788 C.3     1  UNL1        0.0228
     12 C         139.5949  145.6072  161.8358 C.3     1  UNL1        0.0689
     13 N         138.5019  144.6481  162.2037 N.3     1  UNL1       -0.2972
     14 C         138.9721  143.8363  163.3741 C.3     1  UNL1        0.0729
     15 H         138.3005  144.0337  161.4148 H       1  UNL1        0.1233
     16 C         141.7184  144.5328  164.3091 C.3     1  UNL1        0.0317
     17 C         142.8882  143.7230  163.8337 C.ar    1  UNL1       -0.0218
     18 C         143.9035  143.2226  164.8181 C.ar    1  UNL1       -0.0043
     19 C         145.0732  142.4128  164.3428 C.ar    1  UNL1       -0.0003
     20 C         145.2277  142.1034  162.8831 C.ar    1  UNL1       -0.0000
     21 C         144.2124  142.6038  161.8988 C.ar    1  UNL1       -0.0003
     22 C         143.0426  143.4136  162.3741 C.ar    1  UNL1       -0.0043
     23 N         139.9717  139.5041  171.2276 N.am    1  UNL1       -0.3241
     24 C         140.3138  140.9034  170.8096 C.2     1  UNL1        0.2605
     25 O         140.7024  141.9206  171.8413 O.2     1  UNL1       -0.2687
     26 H         140.0021  139.2533  172.1792 H       1  UNL1        0.1453
     27 H         139.7166  138.8365  170.5505 H       1  UNL1        0.1453
@<TRIPOS>BOND
     1    23    24   am
     2    24    25    2
     3    24     1    1
     4     1     2    2
     5     2     3    1
     6     3     4    2
     7     4     5    1
     8     5    10    1
     9    10    16    1
    10    16    17    1
    11    17    18   ar
    12    18    19   ar
    13    19    20   ar
    14    20    21   ar
    15    21    22   ar
    16    10    11    1
    17    11    12    1
    18    12    13    1
    19    13    14    1
    20     5     6    2
    21     6     7    1
    22     7     8    1
    23     8     9    2
    24     9     1    1
    25     8     3    1
    26    14    10    1
    27    22    17   ar
    28    23    26    1
    29    23    27    1
    30    13    15    1
