@<TRIPOS>MOLECULE
*****
 27 30 0 0 0
SMALL
GASTEIGER

@<TRIPOS>ATOM
      1 C         142.5621  139.5727  170.4853 C.3     1  UNL1        0.0523
      2 C         142.2311  139.4895  169.0246 C.ar    1  UNL1        0.0653
      3 C         140.8700  139.8928  168.5399 C.ar    1  UNL1        0.0490
      4 C         140.5389  139.8096  167.0793 C.ar    1  UNL1        0.1342
      5 N         141.5690  139.3231  166.1033 N.ar    1  UNL1       -0.1816
      6 N         141.5322  139.1350  164.6157 N.ar    1  UNL1       -0.1409
      7 C         142.8705  138.6154  164.1809 C.ar    1  UNL1        0.2227
      8 N         143.7344  138.4825  165.3999 N.ar    1  UNL1       -0.1880
      9 C         142.9300  138.9199  166.5881 C.ar    1  UNL1        0.2552
     10 N         143.2611  139.0031  168.0487 N.ar    1  UNL1       -0.2142
     11 C         143.2741  138.2865  162.7741 C.3     1  UNL1        0.3163
     12 C         143.6776  137.9577  161.3674 C.3     1  UNL1        0.0805
     13 F         142.0487  137.4350  162.6216 F       1  UNL1       -0.1962
     14 F         144.4995  139.1381  162.9266 F       1  UNL1       -0.1962
     15 N         139.1779  140.2128  166.5946 N.pl3   1  UNL1       -0.3192
     16 H         138.3761  139.7667  166.9515 H       1  UNL1        0.1482
     17 C         139.0385  141.2957  165.5660 C.3     1  UNL1        0.0750
     18 C         137.8274  141.3390  164.6820 C.3     1  UNL1        0.0245
     19 C         137.6880  142.4220  163.6535 C.3     1  UNL1        0.0278
     20 C         138.7597  143.4616  163.5090 C.ar    1  UNL1       -0.0252
     21 C         138.6202  144.5445  162.4805 C.ar    1  UNL1        0.0068
     22 C         139.6918  145.5841  162.3360 C.ar    1  UNL1        0.0573
     23 CL        139.5524  146.6670  161.3075 Cl      1  UNL1       -0.0823
     24 C         140.9029  145.5407  163.2201 C.ar    1  UNL1        0.0111
     25 C         141.0423  144.4578  164.2486 C.ar    1  UNL1       -0.0037
     26 C         139.9707  143.4182  164.3930 C.ar    1  UNL1       -0.0244
     27 C         140.1101  142.3353  165.4215 C.3     1  UNL1        0.0455
@<TRIPOS>BOND
     1     1     2    1
     2     2     3   ar
     3     3     4   ar
     4     4    15    1
     5    15    17    1
     6    17    18    1
     7    18    19    1
     8    19    20    1
     9    20    21   ar
    10    21    22   ar
    11    22    23    1
    12    22    24   ar
    13    24    25   ar
    14    25    26   ar
    15    26    27    1
    16     4     5   ar
    17     5     6   ar
    18     6     7   ar
    19     7    11    1
    20    11    12    1
    21    11    13    1
    22    11    14    1
    23     7     8   ar
    24     8     9   ar
    25     9    10   ar
    26    10     2   ar
    27    27    17    1
    28     9     5   ar
    29    26    20   ar
    30    15    16    1
@<TRIPOS>MOLECULE
*****
 27 30 0 0 0
SMALL
GASTEIGER

@<TRIPOS>ATOM
      1 C         137.9830  144.7705  164.8413 C.3     1  UNL1        0.0523
      2 C         139.0411  144.6459  163.7854 C.ar    1  UNL1        0.0653
      3 C         140.3265  143.9361  164.0918 C.ar    1  UNL1        0.0490
      4 C         141.3846  143.8115  163.0360 C.ar    1  UNL1        0.1342
      5 N         141.1573  144.3968  161.6736 N.ar    1  UNL1       -0.1816
      6 N         142.0107  144.4303  160.4406 N.ar    1  UNL1       -0.1409
      7 C         141.2527  145.1609  159.3720 C.ar    1  UNL1        0.2227
      8 N         139.9309  145.5788  159.9448 N.ar    1  UNL1       -0.1880
      9 C         139.8719  145.1065  161.3672 C.ar    1  UNL1        0.2552
     10 N         138.8138  145.2311  162.4231 N.ar    1  UNL1       -0.2142
     11 C         141.7324  145.4269  157.9759 C.3     1  UNL1        0.3163
     12 C         142.2121  145.6928  156.5798 C.3     1  UNL1        0.0805
     13 F         142.8697  144.4713  158.1845 F       1  UNL1       -0.1962
     14 F         140.5952  146.3824  157.7672 F       1  UNL1       -0.1962
     15 N         142.6700  143.1018  163.3424 N.pl3   1  UNL1       -0.3192
     16 H         143.4850  143.3181  162.8342 H       1  UNL1        0.1482
     17 C         142.7138  142.0624  164.4231 C.3     1  UNL1        0.0750
     18 C         142.7803  140.6079  164.0625 C.3     1  UNL1        0.0245
     19 C         142.8240  139.5686  165.1432 C.3     1  UNL1        0.0278
     20 C         142.8012  139.9838  166.5844 C.ar    1  UNL1       -0.0252
     21 C         142.8449  138.9444  167.6651 C.ar    1  UNL1        0.0068
     22 C         142.8220  139.3596  169.1063 C.ar    1  UNL1        0.0573
     23 CL        142.8657  138.3203  170.1870 Cl      1  UNL1       -0.0823
     24 C         142.7555  140.8142  169.4669 C.ar    1  UNL1        0.0111
     25 C         142.7118  141.8534  168.3862 C.ar    1  UNL1       -0.0037
     26 C         142.7346  141.4383  166.9450 C.ar    1  UNL1       -0.0244
     27 C         142.6909  142.4776  165.8643 C.3     1  UNL1        0.0455
@<TRIPOS>BOND
     1     1     2    1
     2     2     3   ar
     3     3     4   ar
     4     4    15    1
     5    15    17    1
     6    17    18    1
     7    18    19    1
     8    19    20    1
     9    20    21   ar
    10    21    22   ar
    11    22    23    1
    12    22    24   ar
    13    24    25   ar
    14    25    26   ar
    15    26    27    1
    16     4     5   ar
    17     5     6   ar
    18     6     7   ar
    19     7    11    1
    20    11    12    1
    21    11    13    1
    22    11    14    1
    23     7     8   ar
    24     8     9   ar
    25     9    10   ar
    26    10     2   ar
    27    27    17    1
    28     9     5   ar
    29    26    20   ar
    30    15    16    1
@<TRIPOS>MOLECULE
*****
 27 30 0 0 0
SMALL
GASTEIGER

@<TRIPOS>ATOM
      1 C         139.7115  142.7788  171.0696 C.3     1  UNL1        0.0523
      2 C         140.2021  142.0907  169.8303 C.ar    1  UNL1        0.0653
      3 C         139.4089  140.9664  169.2328 C.ar    1  UNL1        0.0490
      4 C         139.8996  140.2783  167.9935 C.ar    1  UNL1        0.1342
      5 N         141.1833  140.7146  167.3517 N.ar    1  UNL1       -0.1816
      6 N         141.9125  140.2288  166.1342 N.ar    1  UNL1       -0.1409
      7 C         143.1562  141.0528  165.9793 C.ar    1  UNL1        0.2227
      8 N         143.1957  142.0479  167.1011 N.ar    1  UNL1       -0.1880
      9 C         141.9764  141.8388  167.9493 C.ar    1  UNL1        0.2552
     10 N         141.4858  142.5268  169.1886 N.ar    1  UNL1       -0.2142
     11 C         144.1807  140.9074  164.8933 C.3     1  UNL1        0.3163
     12 C         145.2050  140.7619  163.8073 C.3     1  UNL1        0.0805
     13 F         144.4320  142.3856  164.9323 F       1  UNL1       -0.1962
     14 F         143.9293  139.4291  164.8542 F       1  UNL1       -0.1962
     15 N         139.1065  139.1541  167.3959 N.pl3   1  UNL1       -0.3192
     16 H         138.7309  138.4536  167.9768 H       1  UNL1        0.1482
     17 C         138.8857  139.0972  165.9133 C.3     1  UNL1        0.0750
     18 C         139.0151  137.7922  165.1853 C.3     1  UNL1        0.0245
     19 C         138.7942  137.7354  163.7027 C.3     1  UNL1        0.0278
     20 C         138.4440  138.9836  162.9482 C.ar    1  UNL1       -0.0252
     21 C         138.2231  138.9267  161.4656 C.ar    1  UNL1        0.0068
     22 C         137.8729  140.1749  160.7111 C.ar    1  UNL1        0.0573
     23 CL        137.6520  140.1181  159.2286 Cl      1  UNL1       -0.0823
     24 C         137.7434  141.4800  161.4392 C.ar    1  UNL1        0.0111
     25 C         137.9643  141.5369  162.9218 C.ar    1  UNL1       -0.0037
     26 C         138.3145  140.2886  163.6763 C.ar    1  UNL1       -0.0244
     27 C         138.5354  140.3455  165.1588 C.3     1  UNL1        0.0455
@<TRIPOS>BOND
     1     1     2    1
     2     2     3   ar
     3     3     4   ar
     4     4    15    1
     5    15    17    1
     6    17    18    1
     7    18    19    1
     8    19    20    1
     9    20    21   ar
    10    21    22   ar
    11    22    23    1
    12    22    24   ar
    13    24    25   ar
    14    25    26   ar
    15    26    27    1
    16     4     5   ar
    17     5     6   ar
    18     6     7   ar
    19     7    11    1
    20    11    12    1
    21    11    13    1
    22    11    14    1
    23     7     8   ar
    24     8     9   ar
    25     9    10   ar
    26    10     2   ar
    27    27    17    1
    28     9     5   ar
    29    26    20   ar
    30    15    16    1
@<TRIPOS>MOLECULE
*****
 27 30 0 0 0
SMALL
GASTEIGER

@<TRIPOS>ATOM
      1 C         141.3194  144.4059  156.7146 C.3     1  UNL1        0.0523
      2 C         141.2886  144.2185  158.2026 C.ar    1  UNL1        0.0653
      3 C         139.9770  144.0460  158.9098 C.ar    1  UNL1        0.0490
      4 C         139.9462  143.8586  160.3977 C.ar    1  UNL1        0.1342
      5 N         141.2270  143.8439  161.1785 N.ar    1  UNL1       -0.1816
      6 N         141.5079  143.6796  162.6427 N.ar    1  UNL1       -0.1409
      7 C         142.9932  143.7506  162.8404 C.ar    1  UNL1        0.2227
      8 N         143.6300  143.9588  161.4984 N.ar    1  UNL1       -0.1880
      9 C         142.5384  144.0164  160.4712 C.ar    1  UNL1        0.2552
     10 N         142.5692  144.2038  158.9833 N.ar    1  UNL1       -0.2142
     11 C         143.7148  143.6339  164.1503 C.3     1  UNL1        0.3163
     12 C         144.4364  143.5172  165.4601 C.3     1  UNL1        0.0805
     13 F         143.8799  145.1242  164.1922 F       1  UNL1       -0.1962
     14 F         143.5497  142.1436  164.1085 F       1  UNL1       -0.1962
     15 N         138.6347  143.6861  161.1049 N.pl3   1  UNL1       -0.3192
     16 H         137.8595  144.2345  160.8452 H       1  UNL1        0.1482
     17 C         138.5043  142.6779  162.2080 C.3     1  UNL1        0.0750
     18 C         138.0586  143.1126  163.5726 C.3     1  UNL1        0.0245
     19 C         137.9283  142.1044  164.6755 C.3     1  UNL1        0.0278
     20 C         138.2436  140.6615  164.4138 C.ar    1  UNL1       -0.0252
     21 C         138.1132  139.6533  165.5169 C.ar    1  UNL1        0.0068
     22 C         138.4285  138.2103  165.2551 C.ar    1  UNL1        0.0573
     23 CL        138.2982  137.2022  166.3581 Cl      1  UNL1       -0.0823
     24 C         138.8742  137.7756  163.8904 C.ar    1  UNL1        0.0111
     25 C         139.0046  138.7838  162.7875 C.ar    1  UNL1       -0.0037
     26 C         138.6893  140.2267  163.0492 C.ar    1  UNL1       -0.0244
     27 C         138.8196  141.2349  161.9462 C.3     1  UNL1        0.0455
@<TRIPOS>BOND
     1     1     2    1
     2     2     3   ar
     3     3     4   ar
     4     4    15    1
     5    15    17    1
     6    17    18    1
     7    18    19    1
     8    19    20    1
     9    20    21   ar
    10    21    22   ar
    11    22    23    1
    12    22    24   ar
    13    24    25   ar
    14    25    26   ar
    15    26    27    1
    16     4     5   ar
    17     5     6   ar
    18     6     7   ar
    19     7    11    1
    20    11    12    1
    21    11    13    1
    22    11    14    1
    23     7     8   ar
    24     8     9   ar
    25     9    10   ar
    26    10     2   ar
    27    27    17    1
    28     9     5   ar
    29    26    20   ar
    30    15    16    1
@<TRIPOS>MOLECULE
*****
 27 30 0 0 0
SMALL
GASTEIGER

@<TRIPOS>ATOM
      1 C         139.6521  140.3158  170.5682 C.3     1  UNL1        0.0523
      2 C         139.7341  140.3795  169.0718 C.ar    1  UNL1        0.0653
      3 C         140.6530  141.3647  168.4123 C.ar    1  UNL1        0.0490
      4 C         140.7350  141.4284  166.9159 C.ar    1  UNL1        0.1342
      5 N         139.8980  140.5069  166.0790 N.ar    1  UNL1       -0.1816
      6 N         139.7674  140.3403  164.5941 N.ar    1  UNL1       -0.1409
      7 C         138.7678  139.2522  164.3358 C.ar    1  UNL1        0.2227
      8 N         138.2806  138.7463  165.6612 N.ar    1  UNL1       -0.1880
      9 C         138.9791  139.5217  166.7386 C.ar    1  UNL1        0.2552
     10 N         138.8971  139.4580  168.2350 N.ar    1  UNL1       -0.2142
     11 C         138.3319  138.7569  162.9886 C.3     1  UNL1        0.3163
     12 C         137.8960  138.2618  161.6415 C.3     1  UNL1        0.0805
     13 F         138.8262  137.3834  163.3336 F       1  UNL1       -0.1962
     14 F         137.8376  140.1305  162.6437 F       1  UNL1       -0.1962
     15 N         141.6539  142.4136  166.2563 N.pl3   1  UNL1       -0.3192
     16 H         142.5445  142.5878  166.6380 H       1  UNL1        0.1482
     17 C         141.2157  143.1334  165.0153 C.3     1  UNL1        0.0750
     18 C         140.0213  144.0397  165.0561 C.3     1  UNL1        0.0245
     19 C         139.5832  144.7594  163.8151 C.3     1  UNL1        0.0278
     20 C         140.3397  144.5727  162.5333 C.ar    1  UNL1       -0.0252
     21 C         139.9015  145.2925  161.2923 C.ar    1  UNL1        0.0068
     22 C         140.6580  145.1058  160.0105 C.ar    1  UNL1        0.0573
     23 CL        140.2199  145.8255  158.7695 Cl      1  UNL1       -0.0823
     24 C         141.8525  144.1994  159.9697 C.ar    1  UNL1        0.0111
     25 C         142.2905  143.4797  161.2107 C.ar    1  UNL1       -0.0037
     26 C         141.5341  143.6664  162.4925 C.ar    1  UNL1       -0.0244
     27 C         141.9722  142.9467  163.7335 C.3     1  UNL1        0.0455
@<TRIPOS>BOND
     1     1     2    1
     2     2     3   ar
     3     3     4   ar
     4     4    15    1
     5    15    17    1
     6    17    18    1
     7    18    19    1
     8    19    20    1
     9    20    21   ar
    10    21    22   ar
    11    22    23    1
    12    22    24   ar
    13    24    25   ar
    14    25    26   ar
    15    26    27    1
    16     4     5   ar
    17     5     6   ar
    18     6     7   ar
    19     7    11    1
    20    11    12    1
    21    11    13    1
    22    11    14    1
    23     7     8   ar
    24     8     9   ar
    25     9    10   ar
    26    10     2   ar
    27    27    17    1
    28     9     5   ar
    29    26    20   ar
    30    15    16    1
@<TRIPOS>MOLECULE
*****
 27 30 0 0 0
SMALL
GASTEIGER

@<TRIPOS>ATOM
      1 C         137.5927  144.4914  163.0545 C.3     1  UNL1        0.0523
      2 C         137.9544  143.1532  162.4816 C.ar    1  UNL1        0.0653
      3 C         138.0920  141.9632  163.3844 C.ar    1  UNL1        0.0490
      4 C         138.4537  140.6250  162.8114 C.ar    1  UNL1        0.1342
      5 N         138.6778  140.4767  161.3356 N.ar    1  UNL1       -0.1816
      6 N         139.0420  139.2928  160.4897 N.ar    1  UNL1       -0.1409
      7 C         139.1294  139.7511  159.0641 C.ar    1  UNL1        0.2227
      8 N         138.8193  141.2182  159.0290 N.ar    1  UNL1       -0.1880
      9 C         138.5402  141.6667  160.4329 C.ar    1  UNL1        0.2552
     10 N         138.1785  143.0049  161.0059 N.ar    1  UNL1       -0.2142
     11 C         139.4676  138.8928  157.8812 C.3     1  UNL1        0.3163
     12 C         139.8058  138.0346  156.6984 C.3     1  UNL1        0.0805
     13 F         140.3637  138.0555  158.7449 F       1  UNL1       -0.1962
     14 F         138.5715  139.7300  157.0176 F       1  UNL1       -0.1962
     15 N         138.5914  139.4350  163.7141 N.pl3   1  UNL1       -0.3192
     16 H         138.0373  138.6354  163.5626 H       1  UNL1        0.1482
     17 C         139.5732  139.4632  164.8478 C.3     1  UNL1        0.0750
     18 C         141.0229  139.1755  164.5918 C.3     1  UNL1        0.0245
     19 C         142.0047  139.2037  165.7254 C.3     1  UNL1        0.0278
     20 C         141.5368  139.5195  167.1152 C.ar    1  UNL1       -0.0252
     21 C         142.5187  139.5477  168.2489 C.ar    1  UNL1        0.0068
     22 C         142.0508  139.8635  169.6386 C.ar    1  UNL1        0.0573
     23 CL        143.0326  139.8917  170.7723 Cl      1  UNL1       -0.0823
     24 C         140.6010  140.1512  169.8946 C.ar    1  UNL1        0.0111
     25 C         139.6192  140.1230  168.7609 C.ar    1  UNL1       -0.0037
     26 C         140.0871  139.8072  167.3712 C.ar    1  UNL1       -0.0244
     27 C         139.1053  139.7790  166.2376 C.3     1  UNL1        0.0455
@<TRIPOS>BOND
     1     1     2    1
     2     2     3   ar
     3     3     4   ar
     4     4    15    1
     5    15    17    1
     6    17    18    1
     7    18    19    1
     8    19    20    1
     9    20    21   ar
    10    21    22   ar
    11    22    23    1
    12    22    24   ar
    13    24    25   ar
    14    25    26   ar
    15    26    27    1
    16     4     5   ar
    17     5     6   ar
    18     6     7   ar
    19     7    11    1
    20    11    12    1
    21    11    13    1
    22    11    14    1
    23     7     8   ar
    24     8     9   ar
    25     9    10   ar
    26    10     2   ar
    27    27    17    1
    28     9     5   ar
    29    26    20   ar
    30    15    16    1
@<TRIPOS>MOLECULE
*****
 27 30 0 0 0
SMALL
GASTEIGER

@<TRIPOS>ATOM
      1 C         142.5957  137.8728  157.6475 C.3     1  UNL1        0.0523
      2 C         142.7419  138.6294  158.9344 C.ar    1  UNL1        0.0653
      3 C         142.7509  137.8923  160.2409 C.ar    1  UNL1        0.0490
      4 C         142.8972  138.6489  161.5278 C.ar    1  UNL1        0.1342
      5 N         143.0345  140.1425  161.5083 N.ar    1  UNL1       -0.1816
      6 N         143.1930  141.1503  162.6080 N.ar    1  UNL1       -0.1409
      7 C         143.2820  142.5101  161.9811 C.ar    1  UNL1        0.2227
      8 N         143.1785  142.3428  160.4941 N.ar    1  UNL1       -0.1880
      9 C         143.0256  140.8795  160.2019 C.ar    1  UNL1        0.2552
     10 N         142.8793  140.1229  158.9150 N.ar    1  UNL1       -0.2142
     11 C         143.4458  143.8093  162.7129 C.3     1  UNL1        0.3163
     12 C         143.6096  145.1084  163.4447 C.3     1  UNL1        0.0805
     13 F         141.9818  143.8097  163.0398 F       1  UNL1       -0.1962
     14 F         144.9097  143.8089  162.3861 F       1  UNL1       -0.1962
     15 N         142.9062  137.9120  162.8342 N.pl3   1  UNL1       -0.3192
     16 H         143.4980  137.1349  162.9570 H       1  UNL1        0.1482
     17 C         142.0133  138.3590  163.9537 C.3     1  UNL1        0.0750
     18 C         140.5275  138.4080  163.7541 C.3     1  UNL1        0.0245
     19 C         139.6348  138.8550  164.8735 C.3     1  UNL1        0.0278
     20 C         140.2279  139.2530  166.1926 C.ar    1  UNL1       -0.0252
     21 C         139.3350  139.7000  167.3120 C.ar    1  UNL1        0.0068
     22 C         139.9281  140.0980  168.6310 C.ar    1  UNL1        0.0573
     23 CL        139.0354  140.5450  169.7505 Cl      1  UNL1       -0.0823
     24 C         141.4140  140.0490  168.8306 C.ar    1  UNL1        0.0111
     25 C         142.3068  139.6020  167.7112 C.ar    1  UNL1       -0.0037
     26 C         141.7137  139.2040  166.3922 C.ar    1  UNL1       -0.0244
     27 C         142.6064  138.7570  165.2727 C.3     1  UNL1        0.0455
@<TRIPOS>BOND
     1     1     2    1
     2     2     3   ar
     3     3     4   ar
     4     4    15    1
     5    15    17    1
     6    17    18    1
     7    18    19    1
     8    19    20    1
     9    20    21   ar
    10    21    22   ar
    11    22    23    1
    12    22    24   ar
    13    24    25   ar
    14    25    26   ar
    15    26    27    1
    16     4     5   ar
    17     5     6   ar
    18     6     7   ar
    19     7    11    1
    20    11    12    1
    21    11    13    1
    22    11    14    1
    23     7     8   ar
    24     8     9   ar
    25     9    10   ar
    26    10     2   ar
    27    27    17    1
    28     9     5   ar
    29    26    20   ar
    30    15    16    1
@<TRIPOS>MOLECULE
*****
 27 30 0 0 0
SMALL
GASTEIGER

@<TRIPOS>ATOM
      1 C         138.7512  137.8233  154.0012 C.3     1  UNL1        0.0523
      2 C         139.8167  137.3378  154.9387 C.ar    1  UNL1        0.0653
      3 C         140.2344  138.1859  156.1033 C.ar    1  UNL1        0.0490
      4 C         141.2999  137.7003  157.0408 C.ar    1  UNL1        0.1342
      5 N         141.9478  136.3666  156.8137 N.ar    1  UNL1       -0.1816
      6 N         143.0177  135.6298  157.5636 N.ar    1  UNL1       -0.1409
      7 C         143.2613  134.3263  156.8625 C.ar    1  UNL1        0.2227
      8 N         142.3419  134.2576  155.6793 N.ar    1  UNL1       -0.1880
      9 C         141.5302  135.5186  155.6491 C.ar    1  UNL1        0.2552
     10 N         140.4646  136.0041  154.7116 N.ar    1  UNL1       -0.2142
     11 C         144.2505  133.2760  157.2727 C.3     1  UNL1        0.3163
     12 C         145.2398  132.2257  157.6827 C.3     1  UNL1        0.0805
     13 F         144.2348  133.8086  158.6748 F       1  UNL1       -0.1962
     14 F         144.2663  132.7434  155.8705 F       1  UNL1       -0.1962
     15 N         141.7176  138.5484  158.2054 N.pl3   1  UNL1       -0.3192
     16 H         142.5047  139.1349  158.1301 H       1  UNL1        0.1482
     17 C         140.9359  138.5029  159.4849 C.3     1  UNL1        0.0750
     18 C         139.5037  138.9484  159.5051 C.3     1  UNL1        0.0245
     19 C         138.7222  138.9029  160.7845 C.3     1  UNL1        0.0278
     20 C         139.3727  138.4119  162.0438 C.ar    1  UNL1       -0.0252
     21 C         138.5910  138.3664  163.3232 C.ar    1  UNL1        0.0068
     22 C         139.2416  137.8754  164.5825 C.ar    1  UNL1        0.0573
     23 CL        138.4600  137.8299  165.8619 Cl      1  UNL1       -0.0823
     24 C         140.6738  137.4298  164.5622 C.ar    1  UNL1        0.0111
     25 C         141.4554  137.4753  163.2828 C.ar    1  UNL1       -0.0037
     26 C         140.8048  137.9664  162.0236 C.ar    1  UNL1       -0.0244
     27 C         141.5864  138.0119  160.7441 C.3     1  UNL1        0.0455
@<TRIPOS>BOND
     1     1     2    1
     2     2     3   ar
     3     3     4   ar
     4     4    15    1
     5    15    17    1
     6    17    18    1
     7    18    19    1
     8    19    20    1
     9    20    21   ar
    10    21    22   ar
    11    22    23    1
    12    22    24   ar
    13    24    25   ar
    14    25    26   ar
    15    26    27    1
    16     4     5   ar
    17     5     6   ar
    18     6     7   ar
    19     7    11    1
    20    11    12    1
    21    11    13    1
    22    11    14    1
    23     7     8   ar
    24     8     9   ar
    25     9    10   ar
    26    10     2   ar
    27    27    17    1
    28     9     5   ar
    29    26    20   ar
    30    15    16    1
@<TRIPOS>MOLECULE
*****
 27 30 0 0 0
SMALL
GASTEIGER

@<TRIPOS>ATOM
      1 C         139.5750  138.7713  158.2972 C.3     1  UNL1        0.0523
      2 C         139.4054  139.2968  159.6919 C.ar    1  UNL1        0.0653
      3 C         139.4699  138.3580  160.8601 C.ar    1  UNL1        0.0490
      4 C         139.3004  138.8835  162.2548 C.ar    1  UNL1        0.1342
      5 N         139.0664  140.3478  162.4813 N.ar    1  UNL1       -0.1816
      6 N         138.8647  141.1502  163.7324 N.ar    1  UNL1       -0.1409
      7 C         138.6756  142.5849  163.3375 C.ar    1  UNL1        0.2227
      8 N         138.7604  142.6691  161.8423 N.ar    1  UNL1       -0.1880
      9 C         139.0019  141.2865  161.3131 C.ar    1  UNL1        0.2552
     10 N         139.1714  140.7610  159.9184 N.ar    1  UNL1       -0.2142
     11 C         138.4426  143.7337  164.2735 C.3     1  UNL1        0.3163
     12 C         138.2097  144.8824  165.2095 C.3     1  UNL1        0.0805
     13 F         137.7288  144.4770  163.1836 F       1  UNL1       -0.1962
     14 F         139.1564  142.9903  165.3634 F       1  UNL1       -0.1962
     15 N         139.3649  137.9449  163.4230 N.pl3   1  UNL1       -0.3192
     16 H         139.2920  136.9737  163.2787 H       1  UNL1        0.1482
     17 C         139.5405  138.4858  164.8110 C.3     1  UNL1        0.0750
     18 C         138.3457  138.6799  165.6970 C.3     1  UNL1        0.0245
     19 C         138.5213  139.2209  167.0849 C.3     1  UNL1        0.0278
     20 C         139.8916  139.5676  167.5870 C.ar    1  UNL1       -0.0252
     21 C         140.0672  140.1086  168.9750 C.ar    1  UNL1        0.0068
     22 C         141.4375  140.4554  169.4771 C.ar    1  UNL1        0.0573
     23 CL        141.6131  140.9963  170.8650 Cl      1  UNL1       -0.0823
     24 C         142.6322  140.2612  168.5910 C.ar    1  UNL1        0.0111
     25 C         142.4566  139.7203  167.2031 C.ar    1  UNL1       -0.0037
     26 C         141.0863  139.3735  166.7010 C.ar    1  UNL1       -0.0244
     27 C         140.9107  138.8326  165.3131 C.3     1  UNL1        0.0455
@<TRIPOS>BOND
     1     1     2    1
     2     2     3   ar
     3     3     4   ar
     4     4    15    1
     5    15    17    1
     6    17    18    1
     7    18    19    1
     8    19    20    1
     9    20    21   ar
    10    21    22   ar
    11    22    23    1
    12    22    24   ar
    13    24    25   ar
    14    25    26   ar
    15    26    27    1
    16     4     5   ar
    17     5     6   ar
    18     6     7   ar
    19     7    11    1
    20    11    12    1
    21    11    13    1
    22    11    14    1
    23     7     8   ar
    24     8     9   ar
    25     9    10   ar
    26    10     2   ar
    27    27    17    1
    28     9     5   ar
    29    26    20   ar
    30    15    16    1
