@<TRIPOS>MOLECULE
*****
 33 36 0 0 0
SMALL
GASTEIGER

@<TRIPOS>ATOM
      1 N         144.6446  141.3696  164.4347 N.3     1  UNL1       -0.2673
      2 C         144.2258  139.9385  164.5968 C.3     1  UNL1        0.1035
      3 C         143.2449  139.5608  165.6669 C.3     1  UNL1        0.1470
      4 C         142.2639  139.1831  166.7371 C.3     1  UNL1        0.1036
      5 N         141.7019  140.2365  167.6450 N.3     1  UNL1       -0.2653
      6 C         142.1208  141.6677  167.4828 C.3     1  UNL1        0.1036
      7 C         143.1017  142.0454  166.4127 C.3     1  UNL1        0.1470
      8 C         144.0826  142.4231  165.3426 C.3     1  UNL1        0.1035
      9 O         142.6829  140.6143  166.5749 O.3     1  UNL1       -0.3530
     10 C         145.6256  141.7474  163.3645 C.3     1  UNL1        0.0913
     11 C         145.1341  142.1705  162.0120 C.3     1  UNL1        0.1088
     12 N         144.7014  143.5881  161.7809 N.3     1  UNL1       -0.1765
     13 H         145.3561  144.1824  162.2895 H       1  UNL1        0.1489
     14 S         143.3223  144.0253  162.1767 S.O2    1  UNL1        0.0784
     15 O         142.7474  142.8041  161.5226 O.2     1  UNL1       -0.1515
     16 O         143.8972  145.2466  162.8309 O.2     1  UNL1       -0.1515
     17 C         138.9170  144.8232  164.9763 C.3     1  UNL1        0.1321
     18 N         139.9182  144.8293  163.8594 N.ar    1  UNL1       -0.3047
     19 C         139.7234  145.4416  162.5039 C.ar    1  UNL1        0.1800
     20 N         140.9748  145.2150  161.7087 N.ar    1  UNL1       -0.2042
     21 C         141.9431  144.4626  162.5726 C.ar    1  UNL1        0.2215
     22 C         141.2901  144.2243  163.9018 C.ar    1  UNL1        0.1171
     23 C         140.7210  139.8588  168.7151 C.3     1  UNL1        0.1202
     24 C         139.2527  140.0745  168.4966 C.3     1  UNL1        0.2226
     25 O         138.4546  139.0701  167.7193 O.3     1  UNL1       -0.4740
     26 C         138.5260  139.0529  166.2212 C.ar    1  UNL1        0.1387
     27 C         138.2994  140.3162  165.4449 C.ar    1  UNL1        0.0376
     28 C         138.3707  140.2990  163.9467 C.ar    1  UNL1        0.0134
     29 C         138.6687  139.0184  163.2247 C.ar    1  UNL1        0.0686
     30 C         138.8953  137.7550  164.0010 C.ar    1  UNL1        0.0134
     31 C         138.8239  137.7722  165.4991 C.ar    1  UNL1        0.0376
     32 C         138.7400  139.0012  161.7266 C.1     1  UNL1        0.1004
     33 N         138.8113  138.9840  160.2283 N.1     1  UNL1       -0.1908
@<TRIPOS>BOND
     1    17    18    1
     2    18    19   ar
     3    19    20   ar
     4    20    21   ar
     5    21    14    1
     6    14    15    2
     7    14    16    2
     8    14    12    1
     9    12    11    1
    10    11    10    1
    11    10     1    1
    12     1     2    1
    13     2     3    1
    14     3     4    1
    15     4     5    1
    16     5    23    1
    17    23    24    1
    18    24    25    1
    19    25    26    1
    20    26    27   ar
    21    27    28   ar
    22    28    29   ar
    23    29    32    1
    24    32    33    3
    25    29    30   ar
    26    30    31   ar
    27     5     6    1
    28     6     7    1
    29     7     8    1
    30     7     9    1
    31    21    22   ar
    32    22    18   ar
    33     8     1    1
    34     9     3    1
    35    31    26   ar
    36    12    13    1
@<TRIPOS>MOLECULE
*****
 33 36 0 0 0
SMALL
GASTEIGER

@<TRIPOS>ATOM
      1 N         141.2803  143.9728  162.2504 N.3     1  UNL1       -0.2673
      2 C         141.5497  142.7461  161.4304 C.3     1  UNL1        0.1035
      3 C         142.3552  141.6201  162.0076 C.3     1  UNL1        0.1470
      4 C         143.1608  140.4940  162.5848 C.3     1  UNL1        0.1036
      5 N         143.6969  140.5947  163.9821 N.3     1  UNL1       -0.2653
      6 C         143.4275  141.8215  164.8022 C.3     1  UNL1        0.1036
      7 C         142.6219  142.9475  164.2249 C.3     1  UNL1        0.1470
      8 C         141.8164  144.0735  163.6477 C.3     1  UNL1        0.1035
      9 O         142.8914  141.7208  163.4049 O.3     1  UNL1       -0.3530
     10 C         140.4747  145.0988  161.6732 C.3     1  UNL1        0.0913
     11 C         139.2741  145.6160  162.4087 C.3     1  UNL1        0.1088
     12 N         137.9883  144.8438  162.3824 N.3     1  UNL1       -0.1765
     13 H         137.3797  145.2612  163.0866 H       1  UNL1        0.1489
     14 S         137.9957  143.3658  162.6377 S.O2    1  UNL1        0.0784
     15 O         138.3002  143.6173  164.0848 O.2     1  UNL1       -0.1515
     16 O         137.6912  143.1143  161.1907 O.2     1  UNL1       -0.1515
     17 C         137.9648  138.1395  161.8856 C.3     1  UNL1        0.1321
     18 N         137.9889  139.4854  162.5473 N.ar    1  UNL1       -0.3047
     19 C         138.0402  139.7409  164.0246 C.ar    1  UNL1        0.1800
     20 N         138.0490  141.2256  164.2382 N.ar    1  UNL1       -0.2042
     21 C         138.0031  141.8877  162.8930 C.ar    1  UNL1        0.2215
     22 C         137.9660  140.8123  161.8480 C.ar    1  UNL1        0.1171
     23 C         144.5025  139.4688  164.5593 C.3     1  UNL1        0.1202
     24 C         143.9399  138.6393  165.6754 C.3     1  UNL1        0.2226
     25 O         142.4601  138.6146  165.9191 O.3     1  UNL1       -0.4740
     26 C         141.8588  139.4966  166.9729 C.ar    1  UNL1        0.1387
     27 C         140.4194  139.9072  166.8756 C.ar    1  UNL1        0.0376
     28 C         139.8182  140.7892  167.9295 C.ar    1  UNL1        0.0134
     29 C         140.6563  141.2606  169.0807 C.ar    1  UNL1        0.0686
     30 C         142.0957  140.8499  169.1781 C.ar    1  UNL1        0.0134
     31 C         142.6970  139.9679  168.1242 C.ar    1  UNL1        0.0376
     32 C         140.0551  142.1425  170.1345 C.1     1  UNL1        0.1004
     33 N         139.4537  143.0246  171.1883 N.1     1  UNL1       -0.1908
@<TRIPOS>BOND
     1    17    18    1
     2    18    19   ar
     3    19    20   ar
     4    20    21   ar
     5    21    14    1
     6    14    15    2
     7    14    16    2
     8    14    12    1
     9    12    11    1
    10    11    10    1
    11    10     1    1
    12     1     2    1
    13     2     3    1
    14     3     4    1
    15     4     5    1
    16     5    23    1
    17    23    24    1
    18    24    25    1
    19    25    26    1
    20    26    27   ar
    21    27    28   ar
    22    28    29   ar
    23    29    32    1
    24    32    33    3
    25    29    30   ar
    26    30    31   ar
    27     5     6    1
    28     6     7    1
    29     7     8    1
    30     7     9    1
    31    21    22   ar
    32    22    18   ar
    33     8     1    1
    34     9     3    1
    35    31    26   ar
    36    12    13    1
@<TRIPOS>MOLECULE
*****
 33 36 0 0 0
SMALL
GASTEIGER

@<TRIPOS>ATOM
      1 N         138.9663  144.1778  162.0424 N.3     1  UNL1       -0.2673
      2 C         137.9146  143.5902  162.9361 C.3     1  UNL1        0.1035
      3 C         137.6626  142.1116  162.9262 C.3     1  UNL1        0.1470
      4 C         137.4105  140.6329  162.9162 C.3     1  UNL1        0.1036
      5 N         138.2102  139.7419  162.0126 N.3     1  UNL1       -0.2653
      6 C         139.2619  140.3295  161.1188 C.3     1  UNL1        0.1036
      7 C         139.5139  141.8081  161.1288 C.3     1  UNL1        0.1470
      8 C         139.7659  143.2868  161.1388 C.3     1  UNL1        0.1035
      9 O         138.4623  141.2206  162.0225 O.3     1  UNL1       -0.3530
     10 C         139.2183  145.6565  162.0524 C.3     1  UNL1        0.0913
     11 C         140.6233  146.1774  162.1216 C.3     1  UNL1        0.1088
     12 N         141.5059  145.8033  163.2754 N.3     1  UNL1       -0.1765
     13 H         142.1519  146.5801  163.4159 H       1  UNL1        0.1489
     14 S         142.3363  144.5558  163.2108 S.O2    1  UNL1        0.0784
     15 O         141.7209  144.0798  164.4932 O.2     1  UNL1       -0.1515
     16 O         142.9517  145.0319  161.9284 O.2     1  UNL1       -0.1515
     17 C         143.8137  139.4906  163.4135 C.3     1  UNL1        0.1321
     18 N         143.8458  140.9801  163.2393 N.ar    1  UNL1       -0.3047
     19 C         145.0433  141.7972  162.8541 C.ar    1  UNL1        0.1800
     20 N         144.6235  143.2361  162.7966 N.ar    1  UNL1       -0.2042
     21 C         143.1667  143.3084  163.1462 C.ar    1  UNL1        0.2215
     22 C         142.6860  141.9140  163.4198 C.ar    1  UNL1        0.1171
     23 C         137.9582  138.2633  162.0026 C.3     1  UNL1        0.1202
     24 C         138.6935  137.3706  162.9579 C.3     1  UNL1        0.2226
     25 O         139.8954  137.8864  163.6924 O.3     1  UNL1       -0.4740
     26 C         139.7353  138.5130  165.0458 C.ar    1  UNL1        0.1387
     27 C         138.4294  138.3997  165.7750 C.ar    1  UNL1        0.0376
     28 C         138.2694  139.0263  167.1285 C.ar    1  UNL1        0.0134
     29 C         139.4152  139.7661  167.7527 C.ar    1  UNL1        0.0686
     30 C         140.7212  139.8793  167.0235 C.ar    1  UNL1        0.0134
     31 C         140.8812  139.2528  165.6701 C.ar    1  UNL1        0.0376
     32 C         139.2552  140.3926  169.1061 C.1     1  UNL1        0.1004
     33 N         139.0951  141.0192  170.4596 N.1     1  UNL1       -0.1908
@<TRIPOS>BOND
     1    17    18    1
     2    18    19   ar
     3    19    20   ar
     4    20    21   ar
     5    21    14    1
     6    14    15    2
     7    14    16    2
     8    14    12    1
     9    12    11    1
    10    11    10    1
    11    10     1    1
    12     1     2    1
    13     2     3    1
    14     3     4    1
    15     4     5    1
    16     5    23    1
    17    23    24    1
    18    24    25    1
    19    25    26    1
    20    26    27   ar
    21    27    28   ar
    22    28    29   ar
    23    29    32    1
    24    32    33    3
    25    29    30   ar
    26    30    31   ar
    27     5     6    1
    28     6     7    1
    29     7     8    1
    30     7     9    1
    31    21    22   ar
    32    22    18   ar
    33     8     1    1
    34     9     3    1
    35    31    26   ar
    36    12    13    1
@<TRIPOS>MOLECULE
*****
 33 36 0 0 0
SMALL
GASTEIGER

@<TRIPOS>ATOM
      1 N         143.0613  143.4618  164.8394 N.3     1  UNL1       -0.2673
      2 C         143.5566  142.3048  165.6555 C.3     1  UNL1        0.1035
      3 C         142.5782  141.3652  166.2956 C.3     1  UNL1        0.1470
      4 C         141.5997  140.4255  166.9358 C.3     1  UNL1        0.1036
      5 N         140.1260  140.6429  166.7598 N.3     1  UNL1       -0.2653
      6 C         139.6308  141.8000  165.9437 C.3     1  UNL1        0.1036
      7 C         140.6092  142.7396  165.3036 C.3     1  UNL1        0.1470
      8 C         141.5876  143.6792  164.6635 C.3     1  UNL1        0.1035
      9 O         141.1045  141.5826  166.1197 O.3     1  UNL1       -0.3530
     10 C         144.0398  144.4015  164.1993 C.3     1  UNL1        0.0913
     11 C         144.1521  144.4636  162.7048 C.3     1  UNL1        0.1088
     12 N         144.9916  143.4585  161.9733 N.3     1  UNL1       -0.1765
     13 H         145.0788  143.7908  161.0129 H       1  UNL1        0.1489
     14 S         144.5513  142.0266  161.8977 S.O2    1  UNL1        0.0784
     15 O         145.7900  141.6069  162.6320 O.2     1  UNL1       -0.1515
     16 O         143.3125  142.4463  161.1633 O.2     1  UNL1       -0.1515
     17 C         143.0358  137.3314  160.0163 C.3     1  UNL1        0.1321
     18 N         143.4144  138.4365  160.9572 N.ar    1  UNL1       -0.3047
     19 C         143.4524  138.3458  162.4541 C.ar    1  UNL1        0.1800
     20 N         143.8829  139.6796  162.9885 N.ar    1  UNL1       -0.2042
     21 C         144.1110  140.5947  161.8220 C.ar    1  UNL1        0.2215
     22 C         143.8214  139.8264  160.5667 C.ar    1  UNL1        0.1171
     23 C         139.1476  139.7033  167.3999 C.3     1  UNL1        0.1202
     24 C         138.2646  138.8431  166.5452 C.3     1  UNL1        0.2226
     25 O         138.8536  138.0575  165.4112 O.3     1  UNL1       -0.4740
     26 C         138.6510  138.5149  163.9971 C.ar    1  UNL1        0.1387
     27 C         139.1120  137.6554  162.8575 C.ar    1  UNL1        0.0376
     28 C         138.9094  138.1129  161.4433 C.ar    1  UNL1        0.0134
     29 C         138.2458  139.4298  161.1689 C.ar    1  UNL1        0.0686
     30 C         137.7848  140.2893  162.3085 C.ar    1  UNL1        0.0134
     31 C         137.9874  139.8319  163.7226 C.ar    1  UNL1        0.0376
     32 C         138.0433  139.8872  159.7548 C.1     1  UNL1        0.1004
     33 N         137.8406  140.3447  158.3406 N.1     1  UNL1       -0.1908
@<TRIPOS>BOND
     1    17    18    1
     2    18    19   ar
     3    19    20   ar
     4    20    21   ar
     5    21    14    1
     6    14    15    2
     7    14    16    2
     8    14    12    1
     9    12    11    1
    10    11    10    1
    11    10     1    1
    12     1     2    1
    13     2     3    1
    14     3     4    1
    15     4     5    1
    16     5    23    1
    17    23    24    1
    18    24    25    1
    19    25    26    1
    20    26    27   ar
    21    27    28   ar
    22    28    29   ar
    23    29    32    1
    24    32    33    3
    25    29    30   ar
    26    30    31   ar
    27     5     6    1
    28     6     7    1
    29     7     8    1
    30     7     9    1
    31    21    22   ar
    32    22    18   ar
    33     8     1    1
    34     9     3    1
    35    31    26   ar
    36    12    13    1
@<TRIPOS>MOLECULE
*****
 33 36 0 0 0
SMALL
GASTEIGER

@<TRIPOS>ATOM
      1 N         142.0337  138.2262  160.7659 N.3     1  UNL1       -0.2673
      2 C         140.5406  138.2191  160.6226 C.3     1  UNL1        0.1035
      3 C         139.6714  138.0692  161.8359 C.3     1  UNL1        0.1470
      4 C         138.8022  137.9193  163.0492 C.3     1  UNL1        0.1036
      5 N         139.4262  137.7765  164.4058 N.3     1  UNL1       -0.2653
      6 C         140.9194  137.7835  164.5490 C.3     1  UNL1        0.1036
      7 C         141.7885  137.9334  163.3357 C.3     1  UNL1        0.1470
      8 C         142.6576  138.0833  162.1224 C.3     1  UNL1        0.1035
      9 O         140.2954  137.9264  163.1924 O.3     1  UNL1       -0.3530
     10 C         142.9029  138.3761  159.5525 C.3     1  UNL1        0.0913
     11 C         143.2556  139.7435  159.0470 C.3     1  UNL1        0.1088
     12 N         142.4236  140.9272  159.4428 N.3     1  UNL1       -0.1765
     13 H         142.3587  141.5292  158.6220 H       1  UNL1        0.1489
     14 S         142.8543  141.7982  160.5856 S.O2    1  UNL1        0.0784
     15 O         144.1985  141.9753  159.9440 O.2     1  UNL1       -0.1515
     16 O         141.5100  141.6211  161.2271 O.2     1  UNL1       -0.1515
     17 C         144.3907  143.4016  165.3761 C.3     1  UNL1        0.1321
     18 N         143.9911  143.4061  163.9303 N.ar    1  UNL1       -0.3047
     19 C         143.9041  144.6128  163.0434 C.ar    1  UNL1        0.1800
     20 N         143.4676  144.1573  161.6825 N.ar    1  UNL1       -0.2042
     21 C         143.2849  142.6691  161.7283 C.ar    1  UNL1        0.2215
     22 C         143.6084  142.2049  163.1175 C.ar    1  UNL1        0.1171
     23 C         138.5571  137.6266  165.6190 C.3     1  UNL1        0.1202
     24 C         138.1701  138.8355  166.4185 C.3     1  UNL1        0.2226
     25 O         139.1494  139.9563  166.6049 O.3     1  UNL1       -0.4740
     26 C         139.1488  141.1182  165.6562 C.ar    1  UNL1        0.1387
     27 C         140.2393  142.1457  165.7281 C.ar    1  UNL1        0.0376
     28 C         140.2387  143.3076  164.7794 C.ar    1  UNL1        0.0134
     29 C         139.1476  143.4420  163.7589 C.ar    1  UNL1        0.0686
     30 C         138.0572  142.4145  163.6870 C.ar    1  UNL1        0.0134
     31 C         138.0577  141.2526  164.6356 C.ar    1  UNL1        0.0376
     32 C         139.1470  144.6039  162.8103 C.1     1  UNL1        0.1004
     33 N         139.1465  145.7659  161.8616 N.1     1  UNL1       -0.1908
@<TRIPOS>BOND
     1    17    18    1
     2    18    19   ar
     3    19    20   ar
     4    20    21   ar
     5    21    14    1
     6    14    15    2
     7    14    16    2
     8    14    12    1
     9    12    11    1
    10    11    10    1
    11    10     1    1
    12     1     2    1
    13     2     3    1
    14     3     4    1
    15     4     5    1
    16     5    23    1
    17    23    24    1
    18    24    25    1
    19    25    26    1
    20    26    27   ar
    21    27    28   ar
    22    28    29   ar
    23    29    32    1
    24    32    33    3
    25    29    30   ar
    26    30    31   ar
    27     5     6    1
    28     6     7    1
    29     7     8    1
    30     7     9    1
    31    21    22   ar
    32    22    18   ar
    33     8     1    1
    34     9     3    1
    35    31    26   ar
    36    12    13    1
@<TRIPOS>MOLECULE
*****
 33 36 0 0 0
SMALL
GASTEIGER

@<TRIPOS>ATOM
      1 N         142.0601  141.9981  160.0634 N.3     1  UNL1       -0.2673
      2 C         142.9769  141.5158  161.1482 C.3     1  UNL1        0.1035
      3 C         142.4615  140.5885  162.2086 C.3     1  UNL1        0.1470
      4 C         141.9462  139.6612  163.2690 C.3     1  UNL1        0.1036
      5 N         140.5139  139.2163  163.2447 N.3     1  UNL1       -0.2653
      6 C         139.5970  139.6986  162.1599 C.3     1  UNL1        0.1036
      7 C         140.1124  140.6259  161.0995 C.3     1  UNL1        0.1470
      8 C         140.6278  141.5531  160.0391 C.3     1  UNL1        0.1035
      9 O         141.0293  140.1436  162.1842 O.3     1  UNL1       -0.3530
     10 C         142.5754  142.9254  159.0029 C.3     1  UNL1        0.0913
     11 C         141.9109  144.2513  158.7785 C.3     1  UNL1        0.1088
     12 N         141.8037  145.2366  159.9044 N.3     1  UNL1       -0.1765
     13 H         142.7227  145.2819  160.3446 H       1  UNL1        0.1489
     14 S         140.8076  145.0140  161.0036 S.O2    1  UNL1        0.0784
     15 O         141.9289  144.8436  161.9852 O.2     1  UNL1       -0.1515
     16 O         139.6863  145.1844  160.0220 O.2     1  UNL1       -0.1515
     17 C         138.4866  144.9798  165.7462 C.3     1  UNL1        0.1321
     18 N         138.7447  144.7757  164.2828 N.ar    1  UNL1       -0.3047
     19 C         137.8129  144.1219  163.3059 C.ar    1  UNL1        0.1800
     20 N         138.4722  144.1316  161.9586 N.ar    1  UNL1       -0.2042
     21 C         139.8116  144.7914  162.1028 C.ar    1  UNL1        0.2215
     22 C         139.9800  145.1894  163.5392 C.ar    1  UNL1        0.1171
     23 C         139.9985  138.2890  164.3051 C.3     1  UNL1        0.1202
     24 C         138.6475  138.5226  164.9137 C.3     1  UNL1        0.2226
     25 O         138.3278  139.8451  165.5451 O.3     1  UNL1       -0.4740
     26 C         139.3131  140.4904  166.4739 C.ar    1  UNL1        0.1387
     27 C         139.5006  139.9510  167.8609 C.ar    1  UNL1        0.0376
     28 C         140.4859  140.5964  168.7898 C.ar    1  UNL1        0.0134
     29 C         141.2837  141.7811  168.3316 C.ar    1  UNL1        0.0686
     30 C         141.0962  142.3205  166.9445 C.ar    1  UNL1        0.0134
     31 C         140.1109  141.6752  166.0157 C.ar    1  UNL1        0.0376
     32 C         142.2689  142.4264  169.2604 C.1     1  UNL1        0.1004
     33 N         143.2543  143.0717  170.1893 N.1     1  UNL1       -0.1908
@<TRIPOS>BOND
     1    17    18    1
     2    18    19   ar
     3    19    20   ar
     4    20    21   ar
     5    21    14    1
     6    14    15    2
     7    14    16    2
     8    14    12    1
     9    12    11    1
    10    11    10    1
    11    10     1    1
    12     1     2    1
    13     2     3    1
    14     3     4    1
    15     4     5    1
    16     5    23    1
    17    23    24    1
    18    24    25    1
    19    25    26    1
    20    26    27   ar
    21    27    28   ar
    22    28    29   ar
    23    29    32    1
    24    32    33    3
    25    29    30   ar
    26    30    31   ar
    27     5     6    1
    28     6     7    1
    29     7     8    1
    30     7     9    1
    31    21    22   ar
    32    22    18   ar
    33     8     1    1
    34     9     3    1
    35    31    26   ar
    36    12    13    1
@<TRIPOS>MOLECULE
*****
 33 36 0 0 0
SMALL
GASTEIGER

@<TRIPOS>ATOM
      1 N         140.2898  138.6439  161.7921 N.3     1  UNL1       -0.2673
      2 C         141.0257  139.5558  160.8558 C.3     1  UNL1        0.1035
      3 C         142.2975  140.2168  161.2979 C.3     1  UNL1        0.1470
      4 C         143.5695  140.8779  161.7400 C.3     1  UNL1        0.1036
      5 N         144.1053  140.6269  163.1183 N.3     1  UNL1       -0.2653
      6 C         143.3693  139.7149  164.0546 C.3     1  UNL1        0.1036
      7 C         142.0975  139.0539  163.6125 C.3     1  UNL1        0.1470
      8 C         140.8256  138.3929  163.1705 C.3     1  UNL1        0.1035
      9 O         142.8334  139.9659  162.6763 O.3     1  UNL1       -0.3530
     10 C         139.0178  137.9829  161.3501 C.3     1  UNL1        0.0913
     11 C         137.6938  138.5968  161.6965 C.3     1  UNL1        0.1088
     12 N         137.2892  139.9038  161.0815 N.3     1  UNL1       -0.1765
     13 H         137.6853  139.9221  160.1417 H       1  UNL1        0.1489
     14 S         137.6769  141.1944  161.7401 S.O2    1  UNL1        0.0784
     15 O         137.3425  140.6108  163.0808 O.2     1  UNL1       -0.1515
     16 O         138.0114  141.7781  160.3994 O.2     1  UNL1       -0.1515
     17 C         138.5411  144.9060  165.3950 C.3     1  UNL1        0.1321
     18 N         138.4619  144.1912  164.0787 N.ar    1  UNL1       -0.3047
     19 C         138.8606  144.7515  162.7456 C.ar    1  UNL1        0.1800
     20 N         138.6151  143.6971  161.7073 N.ar    1  UNL1       -0.2042
     21 C         138.0646  142.4851  162.3987 C.ar    1  UNL1        0.2215
     22 C         137.9699  142.7905  163.8642 C.ar    1  UNL1        0.1171
     23 C         145.3772  141.2879  163.5604 C.3     1  UNL1        0.1202
     24 C         145.3363  142.3852  164.5824 C.3     1  UNL1        0.2226
     25 O         144.0779  143.1763  164.7834 O.3     1  UNL1       -0.4740
     26 C         143.1077  142.7822  165.8574 C.ar    1  UNL1        0.1387
     27 C         143.5972  142.5202  167.2509 C.ar    1  UNL1        0.0376
     28 C         142.6269  142.1261  168.3249 C.ar    1  UNL1        0.0134
     29 C         141.1673  141.9940  168.0054 C.ar    1  UNL1        0.0686
     30 C         140.6779  142.2560  166.6119 C.ar    1  UNL1        0.0134
     31 C         141.6481  142.6501  165.5379 C.ar    1  UNL1        0.0376
     32 C         140.1972  141.6000  169.0793 C.1     1  UNL1        0.1004
     33 N         139.2270  141.2059  170.1533 N.1     1  UNL1       -0.1908
@<TRIPOS>BOND
     1    17    18    1
     2    18    19   ar
     3    19    20   ar
     4    20    21   ar
     5    21    14    1
     6    14    15    2
     7    14    16    2
     8    14    12    1
     9    12    11    1
    10    11    10    1
    11    10     1    1
    12     1     2    1
    13     2     3    1
    14     3     4    1
    15     4     5    1
    16     5    23    1
    17    23    24    1
    18    24    25    1
    19    25    26    1
    20    26    27   ar
    21    27    28   ar
    22    28    29   ar
    23    29    32    1
    24    32    33    3
    25    29    30   ar
    26    30    31   ar
    27     5     6    1
    28     6     7    1
    29     7     8    1
    30     7     9    1
    31    21    22   ar
    32    22    18   ar
    33     8     1    1
    34     9     3    1
    35    31    26   ar
    36    12    13    1
@<TRIPOS>MOLECULE
*****
 33 36 0 0 0
SMALL
GASTEIGER

@<TRIPOS>ATOM
      1 N         142.2702  138.2880  160.7260 N.3     1  UNL1       -0.2673
      2 C         140.7809  138.3158  160.5498 C.3     1  UNL1        0.1035
      3 C         139.8818  138.1246  161.7351 C.3     1  UNL1        0.1470
      4 C         138.9826  137.9335  162.9205 C.3     1  UNL1        0.1036
      5 N         139.5728  137.7147  164.2820 N.3     1  UNL1       -0.2653
      6 C         141.0622  137.6870  164.4582 C.3     1  UNL1        0.1036
      7 C         141.9613  137.8781  163.2729 C.3     1  UNL1        0.1470
      8 C         142.8604  138.0692  162.0875 C.3     1  UNL1        0.1035
      9 O         140.4720  137.9058  163.0966 O.3     1  UNL1       -0.3530
     10 C         143.1694  138.4792  159.5407 C.3     1  UNL1        0.0913
     11 C         142.5855  138.8381  158.2064 C.3     1  UNL1        0.1088
     12 N         143.1137  138.1942  156.9588 N.3     1  UNL1       -0.1765
     13 H         142.7594  138.7398  156.1732 H       1  UNL1        0.1489
     14 S         142.7987  136.7574  156.6653 S.O2    1  UNL1        0.0784
     15 O         141.3720  136.9881  157.0669 O.2     1  UNL1       -0.1515
     16 O         144.2253  136.5266  156.2637 O.2     1  UNL1       -0.1515
     17 C         142.8938  131.4785  156.7410 C.3     1  UNL1        0.1321
     18 N         142.5274  132.8941  156.4065 N.ar    1  UNL1       -0.3047
     19 C         141.4703  133.3248  155.4333 C.ar    1  UNL1        0.1800
     20 N         141.4433  134.8244  155.4118 N.ar    1  UNL1       -0.2042
     21 C         142.4836  135.3205  156.3717 C.ar    1  UNL1        0.2215
     22 C         143.1537  134.1276  156.9864 C.ar    1  UNL1        0.1171
     23 C         138.6737  137.5236  165.4673 C.3     1  UNL1        0.1202
     24 C         138.1384  138.7164  166.2027 C.3     1  UNL1        0.2226
     25 O         139.0344  139.8845  166.4900 O.3     1  UNL1       -0.4740
     26 C         139.0305  141.0749  165.5774 C.ar    1  UNL1        0.1387
     27 C         140.0454  142.1641  165.7610 C.ar    1  UNL1        0.0376
     28 C         140.0414  143.3545  164.8483 C.ar    1  UNL1        0.0134
     29 C         139.0226  143.4557  163.7520 C.ar    1  UNL1        0.0686
     30 C         138.0077  142.3665  163.5684 C.ar    1  UNL1        0.0134
     31 C         138.0116  141.1762  164.4810 C.ar    1  UNL1        0.0376
     32 C         139.0187  144.6461  162.8394 C.1     1  UNL1        0.1004
     33 N         139.0149  145.8365  161.9267 N.1     1  UNL1       -0.1908
@<TRIPOS>BOND
     1    17    18    1
     2    18    19   ar
     3    19    20   ar
     4    20    21   ar
     5    21    14    1
     6    14    15    2
     7    14    16    2
     8    14    12    1
     9    12    11    1
    10    11    10    1
    11    10     1    1
    12     1     2    1
    13     2     3    1
    14     3     4    1
    15     4     5    1
    16     5    23    1
    17    23    24    1
    18    24    25    1
    19    25    26    1
    20    26    27   ar
    21    27    28   ar
    22    28    29   ar
    23    29    32    1
    24    32    33    3
    25    29    30   ar
    26    30    31   ar
    27     5     6    1
    28     6     7    1
    29     7     8    1
    30     7     9    1
    31    21    22   ar
    32    22    18   ar
    33     8     1    1
    34     9     3    1
    35    31    26   ar
    36    12    13    1
@<TRIPOS>MOLECULE
*****
 33 36 0 0 0
SMALL
GASTEIGER

@<TRIPOS>ATOM
      1 N         142.5393  141.9585  159.7285 N.3     1  UNL1       -0.2673
      2 C         141.1961  141.4553  160.1673 C.3     1  UNL1        0.1035
      3 C         141.0917  140.5099  161.3272 C.3     1  UNL1        0.1470
      4 C         140.9873  139.5646  162.4872 C.3     1  UNL1        0.1036
      5 N         142.2261  139.1225  163.2083 N.3     1  UNL1       -0.2653
      6 C         143.5693  139.6259  162.7695 C.3     1  UNL1        0.1036
      7 C         143.6737  140.5712  161.6096 C.3     1  UNL1        0.1470
      8 C         143.7781  141.5165  160.4497 C.3     1  UNL1        0.1035
      9 O         142.3305  140.0679  162.0483 O.3     1  UNL1       -0.3530
     10 C         142.6437  142.9039  158.5686 C.3     1  UNL1        0.0913
     11 C         141.9253  144.2201  158.6067 C.3     1  UNL1        0.1088
     12 N         141.9778  145.0677  159.8431 N.3     1  UNL1       -0.1765
     13 H         142.8852  144.8991  160.2774 H       1  UNL1        0.1489
     14 S         140.9448  144.8932  160.9166 S.O2    1  UNL1        0.0784
     15 O         139.8689  145.2740  159.9432 O.2     1  UNL1       -0.1515
     16 O         142.0206  144.5124  161.8900 O.2     1  UNL1       -0.1515
     17 C         138.5208  144.9325  165.6073 C.3     1  UNL1        0.1321
     18 N         138.7976  144.7367  164.1462 N.ar    1  UNL1       -0.3047
     19 C         137.8466  144.1632  163.1377 C.ar    1  UNL1        0.1800
     20 N         138.5353  144.1520  161.8052 N.ar    1  UNL1       -0.2042
     21 C         139.9118  144.7186  161.9900 C.ar    1  UNL1        0.2215
     22 C         140.0739  145.0799  163.4368 C.ar    1  UNL1        0.1171
     23 C         142.1217  138.1772  164.3682 C.3     1  UNL1        0.1202
     24 C         142.8836  138.4521  165.6308 C.3     1  UNL1        0.2226
     25 O         143.2037  139.8646  166.0211 O.3     1  UNL1       -0.4740
     26 C         142.3912  140.5532  167.0774 C.ar    1  UNL1        0.1387
     27 C         141.1063  139.9422  167.5524 C.ar    1  UNL1        0.0376
     28 C         140.2938  140.6309  168.6088 C.ar    1  UNL1        0.0134
     29 C         140.7663  141.9304  169.1900 C.ar    1  UNL1        0.0686
     30 C         142.0513  142.5414  168.7150 C.ar    1  UNL1        0.0134
     31 C         142.8637  141.8528  167.6587 C.ar    1  UNL1        0.0376
     32 C         139.9539  142.6190  170.2463 C.1     1  UNL1        0.1004
     33 N         139.1415  143.3077  171.3026 N.1     1  UNL1       -0.1908
@<TRIPOS>BOND
     1    17    18    1
     2    18    19   ar
     3    19    20   ar
     4    20    21   ar
     5    21    14    1
     6    14    15    2
     7    14    16    2
     8    14    12    1
     9    12    11    1
    10    11    10    1
    11    10     1    1
    12     1     2    1
    13     2     3    1
    14     3     4    1
    15     4     5    1
    16     5    23    1
    17    23    24    1
    18    24    25    1
    19    25    26    1
    20    26    27   ar
    21    27    28   ar
    22    28    29   ar
    23    29    32    1
    24    32    33    3
    25    29    30   ar
    26    30    31   ar
    27     5     6    1
    28     6     7    1
    29     7     8    1
    30     7     9    1
    31    21    22   ar
    32    22    18   ar
    33     8     1    1
    34     9     3    1
    35    31    26   ar
    36    12    13    1
