@<TRIPOS>MOLECULE
*****
 34 37 0 0 0
SMALL
GASTEIGER

@<TRIPOS>ATOM
      1 C         142.5184  141.1328  167.2513 C.3     1  UNL1        0.1219
      2 C         142.2626  141.8464  165.9570 C.ar    1  UNL1       -0.0121
      3 C         140.8551  142.1233  165.5187 C.ar    1  UNL1       -0.0037
      4 C         140.5993  142.8370  164.2243 C.ar    1  UNL1       -0.0003
      5 C         141.7510  143.2738  163.3684 C.ar    1  UNL1        0.0015
      6 C         143.1585  142.9969  163.8067 C.ar    1  UNL1       -0.0003
      7 C         143.4143  142.2832  165.1010 C.ar    1  UNL1       -0.0037
      8 C         141.4952  143.9875  162.0740 C.ar    1  UNL1        0.0193
      9 C         140.3811  144.9870  161.9761 C.ar    1  UNL1        0.0047
     10 C         140.1254  145.7007  160.6817 C.ar    1  UNL1        0.0389
     11 C         140.9838  145.4148  159.4854 C.ar    1  UNL1        0.1656
     12 N         140.9704  145.9586  158.0875 N.ar    1  UNL1       -0.2034
     13 C         142.0763  145.2951  157.3215 C.ar    1  UNL1        0.2213
     14 N         142.7732  144.3413  158.2460 N.ar    1  UNL1       -0.1409
     15 N         142.0979  144.4153  159.5833 N.ar    1  UNL1       -0.2092
     16 C         142.3536  143.7016  160.8777 C.ar    1  UNL1        0.1021
     17 C         141.1324  142.5851  170.6747 C.3     1  UNL1        0.1149
     18 N         141.2011  141.8343  169.3779 N.am    1  UNL1       -0.2757
     19 C         140.0213  141.0343  168.9109 C.3     1  UNL1        0.1149
     20 C         142.4497  141.8835  168.5481 C.2     1  UNL1        0.2312
     21 O         143.6294  142.6835  169.0150 O.2     1  UNL1       -0.2745
     22 C         142.8430  139.6683  167.2488 C.3     1  UNL1        0.1413
     23 N         142.9657  138.9251  168.5460 N.3     1  UNL1       -0.3144
     24 H         142.7985  139.5657  169.3220 H       1  UNL1        0.1193
     25 H         143.9036  138.5322  168.6254 H       1  UNL1        0.1193
     26 C         143.0450  138.9471  165.9492 C.2     1  UNL1        0.2406
     27 O         144.4308  138.7387  165.4145 O.2     1  UNL1       -0.2734
     28 N         141.8610  138.4342  165.1842 N.am    1  UNL1       -0.2730
     29 C         141.9067  137.6985  163.8778 C.3     1  UNL1        0.0993
     30 C         140.4974  137.3766  163.4775 C.3     1  UNL1        0.0898
     31 C         139.5807  137.9133  164.5365 C.3     1  UNL1        0.2835
     32 F         138.4991  137.3471  163.6650 F       1  UNL1       -0.2024
     33 F         138.4378  138.3317  165.4133 F       1  UNL1       -0.2024
     34 C         140.4234  138.5669  165.5913 C.3     1  UNL1        0.1601
@<TRIPOS>BOND
     1    17    18    1
     2    18    19    1
     3    18    20   am
     4    20    21    2
     5     1    20    1
     6     1     2    1
     7     2     3   ar
     8     3     4   ar
     9     4     5   ar
    10     5     8    1
    11     8     9   ar
    12     9    10   ar
    13    10    11   ar
    14    11    12   ar
    15    12    13   ar
    16    13    14   ar
    17    14    15   ar
    18    15    16   ar
    19     5     6   ar
    20     6     7   ar
    21     1    22    1
    22    22    23    1
    23    22    26    1
    24    26    27    2
    25    26    28   am
    26    28    29    1
    27    29    30    1
    28    30    31    1
    29    31    32    1
    30    31    33    1
    31    31    34    1
    32     7     2   ar
    33    34    28    1
    34    16     8   ar
    35    15    11   ar
    36    23    24    1
    37    23    25    1
@<TRIPOS>MOLECULE
*****
 34 37 0 0 0
SMALL
GASTEIGER

@<TRIPOS>ATOM
      1 C         143.4650  140.9910  161.0875 C.3     1  UNL1        0.1219
      2 C         142.8552  141.0507  162.4566 C.ar    1  UNL1       -0.0121
      3 C         143.2923  140.0821  163.5152 C.ar    1  UNL1       -0.0037
      4 C         142.6825  140.1418  164.8844 C.ar    1  UNL1       -0.0003
      5 C         141.6356  141.1701  165.1949 C.ar    1  UNL1        0.0015
      6 C         141.1984  142.1387  164.1363 C.ar    1  UNL1       -0.0003
      7 C         141.8082  142.0790  162.7671 C.ar    1  UNL1       -0.0037
      8 C         141.0257  141.2299  166.5640 C.ar    1  UNL1        0.0193
      9 C         140.3928  140.0062  167.1572 C.ar    1  UNL1        0.0047
     10 C         139.7829  140.0660  168.5264 C.ar    1  UNL1        0.0389
     11 C         139.8060  141.3495  169.3023 C.ar    1  UNL1        0.1656
     12 N         139.2883  141.7090  170.6634 N.ar    1  UNL1       -0.2034
     13 C         139.6012  143.1549  170.9114 C.ar    1  UNL1        0.2213
     14 N         140.3124  143.6890  169.7035 N.ar    1  UNL1       -0.1409
     15 N         140.4390  142.5732  168.7090 N.ar    1  UNL1       -0.2092
     16 C         141.0488  142.5134  167.3399 C.ar    1  UNL1        0.1021
     17 C         141.9167  138.3043  158.6106 C.3     1  UNL1        0.1149
     18 N         142.0676  139.5413  159.4456 N.am    1  UNL1       -0.2757
     19 C         140.9721  140.5655  159.4737 C.3     1  UNL1        0.1149
     20 C         143.3141  139.7540  160.2525 C.2     1  UNL1        0.2312
     21 O         144.4096  138.7298  160.2243 O.2     1  UNL1       -0.2745
     22 C         144.2258  142.1682  160.5533 C.3     1  UNL1        0.1413
     23 N         145.2250  142.8725  161.4226 N.3     1  UNL1       -0.3144
     24 H         145.2580  142.4213  162.3368 H       1  UNL1        0.1193
     25 H         144.9500  143.8483  161.5348 H       1  UNL1        0.1193
     26 C         143.9874  142.6411  159.1500 C.2     1  UNL1        0.2406
     27 O         144.8448  142.1298  158.0303 O.2     1  UNL1       -0.2734
     28 N         142.8916  143.6254  158.8661 N.am    1  UNL1       -0.2730
     29 C         142.5367  144.1860  157.5208 C.3     1  UNL1        0.0993
     30 C         141.3842  145.1289  157.7010 C.3     1  UNL1        0.0898
     31 C         141.0268  145.1511  159.1576 C.3     1  UNL1        0.2835
     32 F         139.9744  146.1276  158.7231 F       1  UNL1       -0.2024
     33 F         140.4494  145.3774  160.5234 F       1  UNL1       -0.2024
     34 C         141.9584  144.2219  159.8777 C.3     1  UNL1        0.1601
@<TRIPOS>BOND
     1    17    18    1
     2    18    19    1
     3    18    20   am
     4    20    21    2
     5     1    20    1
     6     1     2    1
     7     2     3   ar
     8     3     4   ar
     9     4     5   ar
    10     5     8    1
    11     8     9   ar
    12     9    10   ar
    13    10    11   ar
    14    11    12   ar
    15    12    13   ar
    16    13    14   ar
    17    14    15   ar
    18    15    16   ar
    19     5     6   ar
    20     6     7   ar
    21     1    22    1
    22    22    23    1
    23    22    26    1
    24    26    27    2
    25    26    28   am
    26    28    29    1
    27    29    30    1
    28    30    31    1
    29    31    32    1
    30    31    33    1
    31    31    34    1
    32     7     2   ar
    33    34    28    1
    34    16     8   ar
    35    15    11   ar
    36    23    24    1
    37    23    25    1
@<TRIPOS>MOLECULE
*****
 34 37 0 0 0
SMALL
GASTEIGER

@<TRIPOS>ATOM
      1 C         142.4693  142.8942  161.2300 C.3     1  UNL1        0.1219
      2 C         142.4206  142.6225  162.7044 C.ar    1  UNL1       -0.0121
      3 C         143.1728  143.5059  163.6551 C.ar    1  UNL1       -0.0037
      4 C         143.1240  143.2342  165.1295 C.ar    1  UNL1       -0.0003
      5 C         142.3230  142.0792  165.6532 C.ar    1  UNL1        0.0015
      6 C         141.5707  141.1958  164.7025 C.ar    1  UNL1       -0.0003
      7 C         141.6195  141.4675  163.2282 C.ar    1  UNL1       -0.0037
      8 C         142.2741  141.8075  167.1276 C.ar    1  UNL1        0.0193
      9 C         143.3370  142.3633  168.0283 C.ar    1  UNL1        0.0047
     10 C         143.2882  142.0916  169.5027 C.ar    1  UNL1        0.0389
     11 C         142.1764  141.2640  170.0763 C.ar    1  UNL1        0.1656
     12 N         141.8675  140.8322  171.4792 N.ar    1  UNL1       -0.2034
     13 C         140.6137  140.0095  171.4455 C.ar    1  UNL1        0.2213
     14 N         140.1477  139.9329  170.0218 N.ar    1  UNL1       -0.1409
     15 N         141.1135  140.7082  169.1756 N.ar    1  UNL1       -0.2092
     16 C         141.1623  140.9800  167.7013 C.ar    1  UNL1        0.1021
     17 C         144.0889  140.2753  158.7264 C.3     1  UNL1        0.1149
     18 N         143.0796  140.9777  159.5854 N.am    1  UNL1       -0.2757
     19 C         141.6715  140.4662  159.6589 C.3     1  UNL1        0.1149
     20 C         143.4786  142.1917  160.3710 C.2     1  UNL1        0.2312
     21 O         144.8867  142.7032  160.2975 O.2     1  UNL1       -0.2745
     22 C         141.5089  143.8683  160.6147 C.3     1  UNL1        0.1413
     23 N         142.0240  145.1070  159.9435 N.3     1  UNL1       -0.3144
     24 H         143.0424  145.1250  159.9985 H       1  UNL1        0.1193
     25 H         141.6437  145.9301  160.4107 H       1  UNL1        0.1193
     26 C         140.0336  143.6038  160.6706 C.2     1  UNL1        0.2406
     27 O         139.3245  143.0516  159.4696 O.2     1  UNL1       -0.2734
     28 N         139.2670  143.8915  161.9276 N.am    1  UNL1       -0.2730
     29 C         137.7962  143.6792  162.1314 C.3     1  UNL1        0.0993
     30 C         137.4570  144.0985  163.5311 C.3     1  UNL1        0.0898
     31 C         138.7182  144.5700  164.1922 C.3     1  UNL1        0.2835
     32 F         137.8241  144.8068  165.3731 F       1  UNL1       -0.2024
     33 F         139.7924  145.0910  165.1003 F       1  UNL1       -0.2024
     34 C         139.8368  144.4421  163.2012 C.3     1  UNL1        0.1601
@<TRIPOS>BOND
     1    17    18    1
     2    18    19    1
     3    18    20   am
     4    20    21    2
     5     1    20    1
     6     1     2    1
     7     2     3   ar
     8     3     4   ar
     9     4     5   ar
    10     5     8    1
    11     8     9   ar
    12     9    10   ar
    13    10    11   ar
    14    11    12   ar
    15    12    13   ar
    16    13    14   ar
    17    14    15   ar
    18    15    16   ar
    19     5     6   ar
    20     6     7   ar
    21     1    22    1
    22    22    23    1
    23    22    26    1
    24    26    27    2
    25    26    28   am
    26    28    29    1
    27    29    30    1
    28    30    31    1
    29    31    32    1
    30    31    33    1
    31    31    34    1
    32     7     2   ar
    33    34    28    1
    34    16     8   ar
    35    15    11   ar
    36    23    24    1
    37    23    25    1
@<TRIPOS>MOLECULE
*****
 34 37 0 0 0
SMALL
GASTEIGER

@<TRIPOS>ATOM
      1 C         143.5096  141.1698  161.2120 C.3     1  UNL1        0.1219
      2 C         143.2571  141.2189  162.6898 C.ar    1  UNL1       -0.0121
      3 C         144.1500  142.0353  163.5765 C.ar    1  UNL1       -0.0037
      4 C         143.8975  142.0843  165.0543 C.ar    1  UNL1       -0.0003
      5 C         142.7523  141.3170  165.6453 C.ar    1  UNL1        0.0015
      6 C         141.8594  140.5006  164.7587 C.ar    1  UNL1       -0.0003
      7 C         142.1118  140.4515  163.2809 C.ar    1  UNL1       -0.0037
      8 C         142.4997  141.3660  167.1232 C.ar    1  UNL1        0.0193
      9 C         143.2784  142.3141  167.9861 C.ar    1  UNL1        0.0047
     10 C         143.0259  142.3631  169.4639 C.ar    1  UNL1        0.0389
     11 C         141.9947  141.4639  170.0787 C.ar    1  UNL1        0.1656
     12 N         141.5304  141.2901  171.4944 N.ar    1  UNL1       -0.2034
     13 C         140.4648  140.2345  171.5064 C.ar    1  UNL1        0.2213
     14 N         140.2704  139.7559  170.0981 N.ar    1  UNL1       -0.1409
     15 N         141.2160  140.5158  169.2158 N.ar    1  UNL1       -0.2092
     16 C         141.4685  140.4668  167.7380 C.ar    1  UNL1        0.1021
     17 C         141.7225  138.3601  159.0528 C.3     1  UNL1        0.1149
     18 N         141.9512  139.6342  159.8109 N.am    1  UNL1       -0.2757
     19 C         140.8503  140.6464  159.9260 C.3     1  UNL1        0.1149
     20 C         143.2808  139.8959  160.4539 C.2     1  UNL1        0.2312
     21 O         144.3818  138.8836  160.3388 O.2     1  UNL1       -0.2745
     22 C         143.9908  142.3948  160.4923 C.3     1  UNL1        0.1413
     23 N         145.4140  142.8435  160.6445 N.3     1  UNL1       -0.3144
     24 H         145.9072  142.2044  161.2681 H       1  UNL1        0.1193
     25 H         145.4337  143.7846  161.0373 H       1  UNL1        0.1193
     26 C         143.0488  143.1710  159.6205 C.2     1  UNL1        0.2406
     27 O         143.1094  143.0192  158.1294 O.2     1  UNL1       -0.2734
     28 N         142.0461  144.0991  160.2397 N.am    1  UNL1       -0.2730
     29 C         141.0452  144.9362  159.5000 C.3     1  UNL1        0.0993
     30 C         140.2488  145.7074  160.5105 C.3     1  UNL1        0.0898
     31 C         140.7577  145.3469  161.8747 C.3     1  UNL1        0.2835
     32 F         139.7073  146.3076  162.3479 F       1  UNL1       -0.2024
     33 F         141.0469  145.1872  163.3378 F       1  UNL1       -0.2024
     34 C         141.8685  144.3529  161.7073 C.3     1  UNL1        0.1601
@<TRIPOS>BOND
     1    17    18    1
     2    18    19    1
     3    18    20   am
     4    20    21    2
     5     1    20    1
     6     1     2    1
     7     2     3   ar
     8     3     4   ar
     9     4     5   ar
    10     5     8    1
    11     8     9   ar
    12     9    10   ar
    13    10    11   ar
    14    11    12   ar
    15    12    13   ar
    16    13    14   ar
    17    14    15   ar
    18    15    16   ar
    19     5     6   ar
    20     6     7   ar
    21     1    22    1
    22    22    23    1
    23    22    26    1
    24    26    27    2
    25    26    28   am
    26    28    29    1
    27    29    30    1
    28    30    31    1
    29    31    32    1
    30    31    33    1
    31    31    34    1
    32     7     2   ar
    33    34    28    1
    34    16     8   ar
    35    15    11   ar
    36    23    24    1
    37    23    25    1
@<TRIPOS>MOLECULE
*****
 34 37 0 0 0
SMALL
GASTEIGER

@<TRIPOS>ATOM
      1 C         140.2082  143.5803  161.5398 C.3     1  UNL1        0.1219
      2 C         140.4167  143.2748  162.9935 C.ar    1  UNL1       -0.0121
      3 C         141.3728  142.1940  163.4032 C.ar    1  UNL1       -0.0037
      4 C         141.5812  141.8886  164.8569 C.ar    1  UNL1       -0.0003
      5 C         140.8336  142.6639  165.9009 C.ar    1  UNL1        0.0015
      6 C         139.8776  143.7446  165.4912 C.ar    1  UNL1       -0.0003
      7 C         139.6691  144.0501  164.0375 C.ar    1  UNL1       -0.0037
      8 C         141.0421  142.3584  167.3547 C.ar    1  UNL1        0.0193
      9 C         140.2914  143.1309  168.3985 C.ar    1  UNL1        0.0047
     10 C         140.4998  142.8254  169.8522 C.ar    1  UNL1        0.0389
     11 C         141.4590  141.7475  170.2620 C.ar    1  UNL1        0.1656
     12 N         141.8682  141.2266  171.6079 N.ar    1  UNL1       -0.2034
     13 C         142.8718  140.1322  171.3957 C.ar    1  UNL1        0.2213
     14 N         143.0829  139.9767  169.9188 N.ar    1  UNL1       -0.1409
     15 N         142.2097  140.9750  169.2181 N.ar    1  UNL1       -0.2092
     16 C         142.0013  141.2805  167.7644 C.ar    1  UNL1        0.1021
     17 C         138.6479  140.9200  159.0421 C.3     1  UNL1        0.1149
     18 N         139.6548  141.6992  159.8353 N.am    1  UNL1       -0.2757
     19 C         141.1149  141.3765  159.7174 C.3     1  UNL1        0.1149
     20 C         139.2015  142.8011  160.7466 C.2     1  UNL1        0.2312
     21 O         137.7413  143.1237  160.8645 O.2     1  UNL1       -0.2745
     22 C         141.0065  144.6649  160.8794 C.3     1  UNL1        0.1413
     23 N         142.4582  144.8381  161.2152 N.3     1  UNL1       -0.3144
     24 H         142.7335  144.1385  161.9045 H       1  UNL1        0.1193
     25 H         142.6096  145.7711  161.5986 H       1  UNL1        0.1193
     26 C         140.3533  145.5763  159.8833 C.2     1  UNL1        0.2406
     27 O         139.2947  146.5405  160.3302 O.2     1  UNL1       -0.2734
     28 N         140.7586  145.5237  158.4399 N.am    1  UNL1       -0.2730
     29 C         140.1972  146.3688  157.3351 C.3     1  UNL1        0.0993
     30 C         140.8881  145.9841  156.0605 C.3     1  UNL1        0.0898
     31 C         141.8764  144.9012  156.3776 C.3     1  UNL1        0.2835
     32 F         142.1762  144.9620  154.9091 F       1  UNL1       -0.2024
     33 F         142.9274  143.8311  156.3876 F       1  UNL1       -0.2024
     34 C         141.7964  144.6167  157.8481 C.3     1  UNL1        0.1601
@<TRIPOS>BOND
     1    17    18    1
     2    18    19    1
     3    18    20   am
     4    20    21    2
     5     1    20    1
     6     1     2    1
     7     2     3   ar
     8     3     4   ar
     9     4     5   ar
    10     5     8    1
    11     8     9   ar
    12     9    10   ar
    13    10    11   ar
    14    11    12   ar
    15    12    13   ar
    16    13    14   ar
    17    14    15   ar
    18    15    16   ar
    19     5     6   ar
    20     6     7   ar
    21     1    22    1
    22    22    23    1
    23    22    26    1
    24    26    27    2
    25    26    28   am
    26    28    29    1
    27    29    30    1
    28    30    31    1
    29    31    32    1
    30    31    33    1
    31    31    34    1
    32     7     2   ar
    33    34    28    1
    34    16     8   ar
    35    15    11   ar
    36    23    24    1
    37    23    25    1
@<TRIPOS>MOLECULE
*****
 34 37 0 0 0
SMALL
GASTEIGER

@<TRIPOS>ATOM
      1 C         140.6107  143.0565  160.7340 C.3     1  UNL1        0.1219
      2 C         140.5074  142.7083  162.1893 C.ar    1  UNL1       -0.0121
      3 C         141.6443  142.0115  162.8763 C.ar    1  UNL1       -0.0037
      4 C         141.5409  141.6633  164.3317 C.ar    1  UNL1       -0.0003
      5 C         140.3008  142.0119  165.1001 C.ar    1  UNL1        0.0015
      6 C         139.1639  142.7088  164.4131 C.ar    1  UNL1       -0.0003
      7 C         139.2672  143.0569  162.9577 C.ar    1  UNL1       -0.0037
      8 C         140.1974  141.6638  166.5555 C.ar    1  UNL1        0.0193
      9 C         139.5763  140.3641  166.9734 C.ar    1  UNL1        0.0047
     10 C         139.4729  140.0159  168.4289 C.ar    1  UNL1        0.0389
     11 C         139.9907  140.9676  169.4662 C.ar    1  UNL1        0.1656
     12 N         140.0263  140.8973  170.9642 N.ar    1  UNL1       -0.2034
     13 C         140.6695  142.1536  171.4719 C.ar    1  UNL1        0.2213
     14 N         141.0314  143.0004  170.2878 N.ar    1  UNL1       -0.1409
     15 N         140.6119  142.2673  169.0482 N.ar    1  UNL1       -0.2092
     16 C         140.7152  142.6154  167.5928 C.ar    1  UNL1        0.1021
     17 C         139.1091  140.4093  158.1869 C.3     1  UNL1        0.1149
     18 N         140.0273  141.0576  159.1803 N.am    1  UNL1       -0.2757
     19 C         141.2801  140.3554  159.6132 C.3     1  UNL1        0.1149
     20 C         139.6926  142.4081  159.7407 C.2     1  UNL1        0.2312
     21 O         138.4398  143.1102  159.3077 O.2     1  UNL1       -0.2745
     22 C         141.6322  144.0530  160.2719 C.3     1  UNL1        0.1413
     23 N         142.0614  145.1645  161.1834 N.3     1  UNL1       -0.3144
     24 H         141.5614  145.0899  162.0693 H       1  UNL1        0.1193
     25 H         141.8497  146.0622  160.7479 H       1  UNL1        0.1193
     26 C         142.2243  143.9382  158.8987 C.2     1  UNL1        0.2406
     27 O         143.3507  142.9806  158.6451 O.2     1  UNL1       -0.2734
     28 N         141.6902  144.7812  157.7787 N.am    1  UNL1       -0.2730
     29 C         142.1789  144.7757  156.3605 C.3     1  UNL1        0.0993
     30 C         141.3643  145.7687  155.5857 C.3     1  UNL1        0.0898
     31 C         140.3722  146.3878  156.5249 C.3     1  UNL1        0.2835
     32 F         139.9446  147.1614  155.3130 F       1  UNL1       -0.2024
     33 F         139.2906  147.1687  157.2108 F       1  UNL1       -0.2024
     34 C         140.5735  145.7775  157.8802 C.3     1  UNL1        0.1601
@<TRIPOS>BOND
     1    17    18    1
     2    18    19    1
     3    18    20   am
     4    20    21    2
     5     1    20    1
     6     1     2    1
     7     2     3   ar
     8     3     4   ar
     9     4     5   ar
    10     5     8    1
    11     8     9   ar
    12     9    10   ar
    13    10    11   ar
    14    11    12   ar
    15    12    13   ar
    16    13    14   ar
    17    14    15   ar
    18    15    16   ar
    19     5     6   ar
    20     6     7   ar
    21     1    22    1
    22    22    23    1
    23    22    26    1
    24    26    27    2
    25    26    28   am
    26    28    29    1
    27    29    30    1
    28    30    31    1
    29    31    32    1
    30    31    33    1
    31    31    34    1
    32     7     2   ar
    33    34    28    1
    34    16     8   ar
    35    15    11   ar
    36    23    24    1
    37    23    25    1
@<TRIPOS>MOLECULE
*****
 34 37 0 0 0
SMALL
GASTEIGER

@<TRIPOS>ATOM
      1 C         141.9366  141.8597  161.0864 C.3     1  UNL1        0.1219
      2 C         141.9529  141.9267  162.5848 C.ar    1  UNL1       -0.0121
      3 C         143.1880  141.5334  163.3397 C.ar    1  UNL1       -0.0037
      4 C         143.2042  141.6004  164.8382 C.ar    1  UNL1       -0.0003
      5 C         141.9855  142.0605  165.5816 C.ar    1  UNL1        0.0015
      6 C         140.7504  142.4538  164.8267 C.ar    1  UNL1       -0.0003
      7 C         140.7341  142.3869  163.3283 C.ar    1  UNL1       -0.0037
      8 C         142.0017  142.1275  167.0801 C.ar    1  UNL1        0.0193
      9 C         143.2996  142.3134  167.8085 C.ar    1  UNL1        0.0047
     10 C         143.3159  142.3803  169.3070 C.ar    1  UNL1        0.0389
     11 C         142.0340  142.2614  170.0769 C.ar    1  UNL1        0.1656
     12 N         141.7402  142.2903  171.5476 N.ar    1  UNL1       -0.2034
     13 C         140.2606  142.1223  171.7280 C.ar    1  UNL1        0.2213
     14 N         139.6400  141.9895  170.3688 N.ar    1  UNL1       -0.1409
     15 N         140.7361  142.0755  169.3484 N.ar    1  UNL1       -0.2092
     16 C         140.7199  142.0086  167.8500 C.ar    1  UNL1        0.1021
     17 C         141.2946  145.1743  159.0004 C.3     1  UNL1        0.1149
     18 N         141.0400  143.9370  159.8093 N.am    1  UNL1       -0.2757
     19 C         139.6343  143.5396  160.1498 C.3     1  UNL1        0.1149
     20 C         142.1912  143.0971  160.2776 C.2     1  UNL1        0.2312
     21 O         143.5969  143.4945  159.9370 O.2     1  UNL1       -0.2745
     22 C         141.6658  140.5555  160.3968 C.3     1  UNL1        0.1413
     23 N         142.7398  139.9030  159.5777 N.3     1  UNL1       -0.3144
     24 H         143.5812  140.4792  159.5994 H       1  UNL1        0.1193
     25 H         142.4199  139.8045  158.6142 H       1  UNL1        0.1193
     26 C         140.3211  139.9037  160.5264 C.2     1  UNL1        0.2406
     27 O         139.2793  140.1166  159.4684 O.2     1  UNL1       -0.2734
     28 N         140.0181  139.0388  161.7140 N.am    1  UNL1       -0.2730
     29 C         138.7253  138.3255  161.9783 C.3     1  UNL1        0.0993
     30 C         138.8629  137.5814  163.2735 C.3     1  UNL1        0.0898
     31 C         140.2407  137.8348  163.8095 C.3     1  UNL1        0.2835
     32 F         139.7954  136.9482  164.9345 F       1  UNL1       -0.2024
     33 F         141.5255  137.9028  164.5807 F       1  UNL1       -0.2024
     34 C         140.9547  138.7355  162.8457 C.3     1  UNL1        0.1601
@<TRIPOS>BOND
     1    17    18    1
     2    18    19    1
     3    18    20   am
     4    20    21    2
     5     1    20    1
     6     1     2    1
     7     2     3   ar
     8     3     4   ar
     9     4     5   ar
    10     5     8    1
    11     8     9   ar
    12     9    10   ar
    13    10    11   ar
    14    11    12   ar
    15    12    13   ar
    16    13    14   ar
    17    14    15   ar
    18    15    16   ar
    19     5     6   ar
    20     6     7   ar
    21     1    22    1
    22    22    23    1
    23    22    26    1
    24    26    27    2
    25    26    28   am
    26    28    29    1
    27    29    30    1
    28    30    31    1
    29    31    32    1
    30    31    33    1
    31    31    34    1
    32     7     2   ar
    33    34    28    1
    34    16     8   ar
    35    15    11   ar
    36    23    24    1
    37    23    25    1
@<TRIPOS>MOLECULE
*****
 34 37 0 0 0
SMALL
GASTEIGER

@<TRIPOS>ATOM
      1 C         139.9467  142.3087  162.5418 C.3     1  UNL1        0.1219
      2 C         140.2107  141.3318  161.4346 C.ar    1  UNL1       -0.0121
      3 C         141.4933  141.4045  160.6603 C.ar    1  UNL1       -0.0037
      4 C         141.7574  140.4275  159.5530 C.ar    1  UNL1       -0.0003
      5 C         140.7389  139.3780  159.2202 C.ar    1  UNL1        0.0015
      6 C         139.4563  139.3052  159.9945 C.ar    1  UNL1       -0.0003
      7 C         139.1922  140.2821  161.1017 C.ar    1  UNL1       -0.0037
      8 C         141.0029  138.4010  158.1129 C.ar    1  UNL1        0.0193
      9 C         139.8772  137.9392  157.2359 C.ar    1  UNL1        0.0047
     10 C         140.1412  136.9622  156.1287 C.ar    1  UNL1        0.0389
     11 C         141.5311  136.4471  155.8986 C.ar    1  UNL1        0.1656
     12 N         142.0913  135.4851  154.8933 N.ar    1  UNL1       -0.2034
     13 C         143.5634  135.3524  155.1491 C.ar    1  UNL1        0.2213
     14 N         143.9129  136.2324  156.3125 N.ar    1  UNL1       -0.1409
     15 N         142.6569  136.9089  156.7757 N.ar    1  UNL1       -0.2092
     16 C         142.3928  137.8859  157.8829 C.ar    1  UNL1        0.1021
     17 C         139.6800  146.1917  161.7663 C.3     1  UNL1        0.1149
     18 N         140.2635  144.8452  162.0774 N.am    1  UNL1       -0.2757
     19 C         141.7469  144.6888  162.2351 C.3     1  UNL1        0.1149
     20 C         139.3633  143.6552  162.2307 C.2     1  UNL1        0.2312
     21 O         137.8799  143.8116  162.0729 O.2     1  UNL1       -0.2745
     22 C         140.2659  141.9391  163.9600 C.3     1  UNL1        0.1413
     23 N         139.8141  142.8225  165.0851 N.3     1  UNL1       -0.3144
     24 H         139.3082  143.6232  164.7065 H       1  UNL1        0.1193
     25 H         140.6266  143.1498  165.6077 H       1  UNL1        0.1193
     26 C         141.0368  140.6864  164.2533 C.2     1  UNL1        0.2406
     27 O         140.3092  139.4231  164.6063 O.2     1  UNL1       -0.2734
     28 N         142.5357  140.6967  164.1935 N.am    1  UNL1       -0.2730
     29 C         143.4368  139.5277  164.4602 C.3     1  UNL1        0.0993
     30 C         144.8545  139.9864  164.2881 C.3     1  UNL1        0.0898
     31 C         144.8295  141.4390  163.9150 C.3     1  UNL1        0.2835
     32 F         146.3227  141.2975  163.8946 F       1  UNL1       -0.2024
     33 F         145.1168  142.8621  163.5376 F       1  UNL1       -0.2024
     34 C         143.3965  141.8781  163.8565 C.3     1  UNL1        0.1601
@<TRIPOS>BOND
     1    17    18    1
     2    18    19    1
     3    18    20   am
     4    20    21    2
     5     1    20    1
     6     1     2    1
     7     2     3   ar
     8     3     4   ar
     9     4     5   ar
    10     5     8    1
    11     8     9   ar
    12     9    10   ar
    13    10    11   ar
    14    11    12   ar
    15    12    13   ar
    16    13    14   ar
    17    14    15   ar
    18    15    16   ar
    19     5     6   ar
    20     6     7   ar
    21     1    22    1
    22    22    23    1
    23    22    26    1
    24    26    27    2
    25    26    28   am
    26    28    29    1
    27    29    30    1
    28    30    31    1
    29    31    32    1
    30    31    33    1
    31    31    34    1
    32     7     2   ar
    33    34    28    1
    34    16     8   ar
    35    15    11   ar
    36    23    24    1
    37    23    25    1
@<TRIPOS>MOLECULE
*****
 34 37 0 0 0
SMALL
GASTEIGER

@<TRIPOS>ATOM
      1 C         141.1463  139.0600  159.2656 C.3     1  UNL1        0.1219
      2 C         140.7632  139.1525  160.7129 C.ar    1  UNL1       -0.0121
      3 C         140.0557  138.0082  161.3761 C.ar    1  UNL1       -0.0037
      4 C         139.6726  138.1008  162.8235 C.ar    1  UNL1       -0.0003
      5 C         139.9971  139.3376  163.6075 C.ar    1  UNL1        0.0015
      6 C         140.7046  140.4819  162.9443 C.ar    1  UNL1       -0.0003
      7 C         141.0877  140.3894  161.4971 C.ar    1  UNL1       -0.0037
      8 C         139.6140  139.4302  165.0549 C.ar    1  UNL1        0.0193
      9 C         138.4190  138.6800  165.5639 C.ar    1  UNL1        0.0047
     10 C         138.0360  138.7726  167.0113 C.ar    1  UNL1        0.0389
     11 C         138.8480  139.6154  167.9495 C.ar    1  UNL1        0.1656
     12 N         138.7143  139.8972  169.4167 N.ar    1  UNL1       -0.2034
     13 C         139.8267  140.8215  169.8144 C.ar    1  UNL1        0.2213
     14 N         140.6480  141.1110  168.5930 N.ar    1  UNL1       -0.1409
     15 N         140.0431  140.3656  167.4404 N.ar    1  UNL1       -0.2092
     16 C         140.4261  140.2729  165.9931 C.ar    1  UNL1        0.1021
     17 C         138.6746  140.6418  156.5938 C.3     1  UNL1        0.1149
     18 N         139.7263  140.5249  157.6570 N.am    1  UNL1       -0.2757
     19 C         140.4097  141.7557  158.1746 C.3     1  UNL1        0.1149
     20 C         140.0946  139.1770  158.2025 C.2     1  UNL1        0.2312
     21 O         139.4112  137.9462  157.6848 O.2     1  UNL1       -0.2745
     22 C         142.5810  138.8504  158.8815 C.3     1  UNL1        0.1413
     23 N         143.6300  138.7148  159.9451 N.3     1  UNL1       -0.3144
     24 H         143.1939  138.7890  160.8642 H       1  UNL1        0.1193
     25 H         144.3223  139.4560  159.8364 H       1  UNL1        0.1193
     26 C         142.9667  138.7765  157.4339 C.2     1  UNL1        0.2406
     27 O         143.1699  140.0370  156.6465 O.2     1  UNL1       -0.2734
     28 N         143.1494  137.4421  156.7735 N.am    1  UNL1       -0.2730
     29 C         143.5318  137.2120  155.3415 C.3     1  UNL1        0.0993
     30 C         143.6004  135.7312  155.1122 C.3     1  UNL1        0.0898
     31 C         143.2604  135.0462  156.4026 C.3     1  UNL1        0.2835
     32 F         143.4776  133.7907  155.6110 F       1  UNL1       -0.2024
     33 F         142.9659  134.0986  157.5275 F       1  UNL1       -0.2024
     34 C         142.9817  136.1035  157.4293 C.3     1  UNL1        0.1601
@<TRIPOS>BOND
     1    17    18    1
     2    18    19    1
     3    18    20   am
     4    20    21    2
     5     1    20    1
     6     1     2    1
     7     2     3   ar
     8     3     4   ar
     9     4     5   ar
    10     5     8    1
    11     8     9   ar
    12     9    10   ar
    13    10    11   ar
    14    11    12   ar
    15    12    13   ar
    16    13    14   ar
    17    14    15   ar
    18    15    16   ar
    19     5     6   ar
    20     6     7   ar
    21     1    22    1
    22    22    23    1
    23    22    26    1
    24    26    27    2
    25    26    28   am
    26    28    29    1
    27    29    30    1
    28    30    31    1
    29    31    32    1
    30    31    33    1
    31    31    34    1
    32     7     2   ar
    33    34    28    1
    34    16     8   ar
    35    15    11   ar
    36    23    24    1
    37    23    25    1
