@<TRIPOS>MOLECULE
*****
 39 42 0 0 0
SMALL
GASTEIGER

@<TRIPOS>ATOM
      1 C         138.9140  141.0526  160.6167 C.3     1  UNL1        0.0702
      2 C         139.1913  140.1813  159.4276 C.3     1  UNL1        0.0100
      3 C         139.3786  141.0710  158.2346 C.3     1  UNL1        0.0164
      4 C         139.2171  142.4922  158.6863 C.3     1  UNL1        0.0580
      5 C         138.9300  142.4808  160.1585 C.3     1  UNL1        0.0246
      6 N         139.3239  143.7108  157.8182 N.3     1  UNL1       -0.2739
      7 C         140.0296  144.9334  158.3254 C.3     1  UNL1        0.0724
      8 C         140.1365  146.1521  157.4573 C.3     1  UNL1        0.0218
      9 C         139.5376  146.1481  156.0820 C.3     1  UNL1        0.0266
     10 C         138.8319  144.9254  155.5749 C.3     1  UNL1        0.0218
     11 C         138.7251  143.7068  156.4429 C.3     1  UNL1        0.0724
     12 C         139.6445  147.3667  155.2140 C.ar    1  UNL1       -0.0033
     13 C         140.4397  147.3149  153.9432 C.ar    1  UNL1       -0.0011
     14 C         140.5465  148.5335  153.0751 C.ar    1  UNL1        0.0204
     15 C         139.8582  149.8039  153.4779 C.ar    1  UNL1        0.0989
     16 N         139.0629  149.8557  154.7487 N.ar    1  UNL1       -0.2426
     17 C         138.9561  148.6371  155.6168 C.ar    1  UNL1        0.0946
     18 C         138.6206  141.6515  161.9602 C.2     1  UNL1        0.2218
     19 O         137.2071  141.7228  162.4571 O.2     1  UNL1       -0.2751
     20 N         139.7408  142.1792  162.8070 N.am    1  UNL1       -0.3004
     21 H         140.6685  142.1324  162.4809 H       1  UNL1        0.1497
     22 C         139.4474  142.7781  164.1505 C.3     1  UNL1        0.1163
     23 C         139.4987  141.9216  165.3809 C.ar    1  UNL1       -0.0027
     24 C         138.8048  140.5919  165.3985 C.ar    1  UNL1        0.0012
     25 C         138.8561  139.7354  166.6289 C.ar    1  UNL1        0.0711
     26 C         139.6014  140.2087  167.8416 C.ar    1  UNL1        0.0077
     27 C         140.2953  141.5384  167.8239 C.ar    1  UNL1        0.0711
     28 C         140.2439  142.3948  166.5936 C.ar    1  UNL1        0.0012
     29 C         138.1622  138.4056  166.6466 C.3     1  UNL1        0.4186
     30 F         137.4684  137.0759  166.6642 F       1  UNL1       -0.1659
     31 F         138.8980  138.0052  165.4023 F       1  UNL1       -0.1659
     32 F         137.4264  138.8061  167.8908 F       1  UNL1       -0.1659
     33 C         141.0406  142.0116  169.0366 C.3     1  UNL1        0.4186
     34 F         141.7858  142.4848  170.2493 F       1  UNL1       -0.1659
     35 F         141.5627  140.6229  169.2577 F       1  UNL1       -0.1659
     36 F         140.5184  143.4003  168.8156 F       1  UNL1       -0.1659
     37 C         137.5685  138.9490  161.3337 C.3     1  UNL1        0.0005
     38 C         138.8367  139.7496  161.3557 C.3     1  UNL1        0.0082
     39 C         140.0277  139.2472  162.1167 C.3     1  UNL1        0.0005
@<TRIPOS>BOND
     1    37    38    1
     2    38    39    1
     3     1    38    1
     4     1    18    1
     5    18    19    2
     6    18    20   am
     7    20    22    1
     8    22    23    1
     9    23    24   ar
    10    24    25   ar
    11    25    29    1
    12    29    30    1
    13    29    31    1
    14    29    32    1
    15    25    26   ar
    16    26    27   ar
    17    27    33    1
    18    33    34    1
    19    33    35    1
    20    33    36    1
    21    27    28   ar
    22     1     2    1
    23     2     3    1
    24     3     4    1
    25     4     6    1
    26     6     7    1
    27     7     8    1
    28     8     9    1
    29     9    12    1
    30    12    13   ar
    31    13    14   ar
    32    14    15   ar
    33    15    16   ar
    34    16    17   ar
    35     9    10    1
    36    10    11    1
    37     4     5    1
    38     5     1    1
    39    28    23   ar
    40    11     6    1
    41    17    12   ar
    42    20    21    1
@<TRIPOS>MOLECULE
*****
 39 42 0 0 0
SMALL
GASTEIGER

@<TRIPOS>ATOM
      1 C         143.5606  142.6591  163.0391 C.3     1  UNL1        0.0702
      2 C         144.5714  143.3086  162.1411 C.3     1  UNL1        0.0100
      3 C         144.6255  142.5267  160.8622 C.3     1  UNL1        0.0164
      4 C         143.6481  141.3939  160.9698 C.3     1  UNL1        0.0580
      5 C         142.9900  141.4758  162.3152 C.3     1  UNL1        0.0246
      6 N         143.3766  140.3607  159.9168 N.3     1  UNL1       -0.2739
      7 C         142.8536  139.0104  160.3082 C.3     1  UNL1        0.0724
      8 C         142.5821  137.9772  159.2552 C.3     1  UNL1        0.0218
      9 C         142.8336  138.2943  157.8108 C.3     1  UNL1        0.0266
     10 C         143.3566  139.6447  157.4195 C.3     1  UNL1        0.0218
     11 C         143.6281  140.6779  158.4724 C.3     1  UNL1        0.0724
     12 C         142.5620  137.2611  156.7579 C.ar    1  UNL1       -0.0033
     13 C         143.7038  136.5872  156.0563 C.ar    1  UNL1       -0.0011
     14 C         143.4323  135.5540  155.0033 C.ar    1  UNL1        0.0204
     15 C         142.0190  135.1947  154.6519 C.ar    1  UNL1        0.0989
     16 N         140.8771  135.8686  155.3536 N.ar    1  UNL1       -0.2426
     17 C         141.1487  136.9018  156.4065 C.ar    1  UNL1        0.0946
     18 C         142.6283  142.2386  164.1364 C.2     1  UNL1        0.2218
     19 O         141.3828  143.0296  164.4066 O.2     1  UNL1       -0.2751
     20 N         142.9416  141.0271  164.9635 N.am    1  UNL1       -0.3004
     21 H         143.7590  140.5079  164.7862 H       1  UNL1        0.1497
     22 C         142.0093  140.6066  166.0608 C.3     1  UNL1        0.1163
     23 C         140.7857  139.8012  165.7379 C.ar    1  UNL1       -0.0027
     24 C         139.7853  139.4934  166.8123 C.ar    1  UNL1        0.0012
     25 C         138.5618  138.6880  166.4893 C.ar    1  UNL1        0.0711
     26 C         138.3386  138.1905  165.0919 C.ar    1  UNL1        0.0077
     27 C         139.3390  138.4983  164.0175 C.ar    1  UNL1        0.0711
     28 C         140.5625  139.3037  164.3405 C.ar    1  UNL1        0.0012
     29 C         137.5613  138.3802  167.5638 C.3     1  UNL1        0.4186
     30 F         136.5609  138.0724  168.6382 F       1  UNL1       -0.1659
     31 F         138.0582  139.5493  168.3614 F       1  UNL1       -0.1659
     32 F         137.0644  137.2111  166.7662 F       1  UNL1       -0.1659
     33 C         139.1159  138.0008  162.6201 C.3     1  UNL1        0.4186
     34 F         138.8927  137.5033  161.2227 F       1  UNL1       -0.1659
     35 F         137.8299  138.7701  162.5516 F       1  UNL1       -0.1659
     36 F         140.4018  137.2316  162.6887 F       1  UNL1       -0.1659
     37 C         144.6020  143.4202  165.2943 C.3     1  UNL1        0.0005
     38 C         143.9362  143.7546  163.9925 C.3     1  UNL1        0.0082
     39 C         143.6461  145.1844  163.6439 C.3     1  UNL1        0.0005
@<TRIPOS>BOND
     1    37    38    1
     2    38    39    1
     3     1    38    1
     4     1    18    1
     5    18    19    2
     6    18    20   am
     7    20    22    1
     8    22    23    1
     9    23    24   ar
    10    24    25   ar
    11    25    29    1
    12    29    30    1
    13    29    31    1
    14    29    32    1
    15    25    26   ar
    16    26    27   ar
    17    27    33    1
    18    33    34    1
    19    33    35    1
    20    33    36    1
    21    27    28   ar
    22     1     2    1
    23     2     3    1
    24     3     4    1
    25     4     6    1
    26     6     7    1
    27     7     8    1
    28     8     9    1
    29     9    12    1
    30    12    13   ar
    31    13    14   ar
    32    14    15   ar
    33    15    16   ar
    34    16    17   ar
    35     9    10    1
    36    10    11    1
    37     4     5    1
    38     5     1    1
    39    28    23   ar
    40    11     6    1
    41    17    12   ar
    42    20    21    1
@<TRIPOS>MOLECULE
*****
 39 42 0 0 0
SMALL
GASTEIGER

@<TRIPOS>ATOM
      1 C         138.8633  140.8862  160.6308 C.3     1  UNL1        0.0702
      2 C         139.1409  140.0098  159.4454 C.3     1  UNL1        0.0100
      3 C         139.3468  140.8954  158.2524 C.3     1  UNL1        0.0164
      4 C         139.1964  142.3190  158.7003 C.3     1  UNL1        0.0580
      5 C         138.8976  142.3133  160.1703 C.3     1  UNL1        0.0246
      6 N         139.3226  143.5349  157.8310 N.3     1  UNL1       -0.2739
      7 C         140.1062  144.7210  158.3095 C.3     1  UNL1        0.0724
      8 C         140.2324  145.9368  157.4402 C.3     1  UNL1        0.0218
      9 C         139.5749  145.9666  156.0923 C.3     1  UNL1        0.0266
     10 C         138.7912  144.7804  155.6138 C.3     1  UNL1        0.0218
     11 C         138.6650  143.5646  156.4831 C.3     1  UNL1        0.0724
     12 C         139.7011  147.1825  155.2229 C.ar    1  UNL1       -0.0033
     13 C         138.9942  148.4506  155.5998 C.ar    1  UNL1       -0.0011
     14 C         139.1204  149.6664  154.7305 C.ar    1  UNL1        0.0204
     15 C         139.9536  149.6142  153.4843 C.ar    1  UNL1        0.0989
     16 N         140.6606  148.3460  153.1074 N.ar    1  UNL1       -0.2426
     17 C         140.5344  147.1301  153.9767 C.ar    1  UNL1        0.0946
     18 C         138.5655  141.4905  161.9709 C.2     1  UNL1        0.2218
     19 O         137.1497  141.5706  162.4596 O.2     1  UNL1       -0.2751
     20 N         139.6837  142.0148  162.8224 N.am    1  UNL1       -0.3004
     21 H         140.6130  141.9623  162.5016 H       1  UNL1        0.1497
     22 C         139.3859  142.6192  164.1625 C.3     1  UNL1        0.1163
     23 C         139.4350  141.7681  165.3968 C.ar    1  UNL1       -0.0027
     24 C         140.1866  142.2421  166.6052 C.ar    1  UNL1        0.0012
     25 C         140.2357  141.3910  167.8394 C.ar    1  UNL1        0.0711
     26 C         139.5333  140.0659  167.8651 C.ar    1  UNL1        0.0077
     27 C         138.7817  139.5919  166.6566 C.ar    1  UNL1        0.0711
     28 C         138.7326  140.4430  165.4225 C.ar    1  UNL1        0.0012
     29 C         140.9873  141.8650  169.0479 C.3     1  UNL1        0.4186
     30 F         141.7388  142.3390  170.2564 F       1  UNL1       -0.1659
     31 F         140.3663  143.2225  168.9016 F       1  UNL1       -0.1659
     32 F         141.6083  140.5075  169.1942 F       1  UNL1       -0.1659
     33 C         138.0793  138.2668  166.6823 C.3     1  UNL1        0.4186
     34 F         137.3768  136.9417  166.7080 F       1  UNL1       -0.1659
     35 F         137.3350  138.6852  167.9156 F       1  UNL1       -0.1659
     36 F         138.8235  137.8484  165.4490 F       1  UNL1       -0.1659
     37 C         137.4922  138.7953  161.3367 C.3     1  UNL1        0.0005
     38 C         138.7668  139.5854  161.3714 C.3     1  UNL1        0.0082
     39 C         139.9449  139.0746  162.1469 C.3     1  UNL1        0.0005
@<TRIPOS>BOND
     1    37    38    1
     2    38    39    1
     3     1    38    1
     4     1    18    1
     5    18    19    2
     6    18    20   am
     7    20    22    1
     8    22    23    1
     9    23    24   ar
    10    24    25   ar
    11    25    29    1
    12    29    30    1
    13    29    31    1
    14    29    32    1
    15    25    26   ar
    16    26    27   ar
    17    27    33    1
    18    33    34    1
    19    33    35    1
    20    33    36    1
    21    27    28   ar
    22     1     2    1
    23     2     3    1
    24     3     4    1
    25     4     6    1
    26     6     7    1
    27     7     8    1
    28     8     9    1
    29     9    12    1
    30    12    13   ar
    31    13    14   ar
    32    14    15   ar
    33    15    16   ar
    34    16    17   ar
    35     9    10    1
    36    10    11    1
    37     4     5    1
    38     5     1    1
    39    28    23   ar
    40    11     6    1
    41    17    12   ar
    42    20    21    1
@<TRIPOS>MOLECULE
*****
 39 42 0 0 0
SMALL
GASTEIGER

@<TRIPOS>ATOM
      1 C         139.7597  139.9162  157.8937 C.3     1  UNL1        0.0702
      2 C         140.5412  140.5555  156.7844 C.3     1  UNL1        0.0100
      3 C         141.3312  139.4824  156.0958 C.3     1  UNL1        0.0164
      4 C         141.0381  138.1799  156.7795 C.3     1  UNL1        0.0580
      5 C         140.0668  138.4480  157.8907 C.3     1  UNL1        0.0246
      6 N         141.6149  136.8438  156.4158 N.3     1  UNL1       -0.2739
      7 C         140.9545  136.0029  155.3639 C.3     1  UNL1        0.0724
      8 C         141.5313  134.6669  155.0003 C.3     1  UNL1        0.0218
      9 C         142.7686  134.1717  155.6886 C.3     1  UNL1        0.0266
     10 C         143.4290  135.0126  156.7407 C.3     1  UNL1        0.0218
     11 C         142.8522  136.3487  157.1043 C.3     1  UNL1        0.0724
     12 C         143.3454  132.8356  155.3250 C.ar    1  UNL1       -0.0033
     13 C         142.8686  132.1227  154.0944 C.ar    1  UNL1       -0.0011
     14 C         143.4454  130.7866  153.7308 C.ar    1  UNL1        0.0204
     15 C         144.4990  130.1635  154.5978 C.ar    1  UNL1        0.0989
     16 N         144.9758  130.8765  155.8285 N.ar    1  UNL1       -0.2426
     17 C         144.3990  132.2125  156.1921 C.ar    1  UNL1        0.0946
     18 C         138.8754  139.5687  159.0543 C.2     1  UNL1        0.2218
     19 O         137.4155  139.9106  159.0137 O.2     1  UNL1       -0.2751
     20 N         139.4511  138.8792  160.2558 N.am    1  UNL1       -0.3004
     21 H         140.4093  138.6548  160.2825 H       1  UNL1        0.1497
     22 C         138.5667  138.5317  161.4164 C.3     1  UNL1        0.1163
     23 C         138.4048  139.4985  162.5518 C.ar    1  UNL1       -0.0027
     24 C         138.1076  140.9417  162.2714 C.ar    1  UNL1        0.0012
     25 C         137.9457  141.9085  163.4067 C.ar    1  UNL1        0.0711
     26 C         138.0809  141.4320  164.8226 C.ar    1  UNL1        0.0077
     27 C         138.3781  139.9888  165.1031 C.ar    1  UNL1        0.0711
     28 C         138.5400  139.0220  163.9677 C.ar    1  UNL1        0.0012
     29 C         137.6485  143.3518  163.1263 C.3     1  UNL1        0.4186
     30 F         137.3513  144.7950  162.8458 F       1  UNL1       -0.1659
     31 F         137.6624  143.0684  161.6534 F       1  UNL1       -0.1659
     32 F         137.6345  143.6352  164.5992 F       1  UNL1       -0.1659
     33 C         138.5133  139.5123  166.5189 C.3     1  UNL1        0.4186
     34 F         138.6486  139.0358  167.9348 F       1  UNL1       -0.1659
     35 F         139.3132  140.7361  166.8544 F       1  UNL1       -0.1659
     36 F         137.7135  138.2885  166.1835 F       1  UNL1       -0.1659
     37 C         138.2247  141.9082  157.2415 C.3     1  UNL1        0.0005
     38 C         139.2678  141.3118  158.1394 C.3     1  UNL1        0.0082
     39 C         139.8188  142.1109  159.2830 C.3     1  UNL1        0.0005
@<TRIPOS>BOND
     1    37    38    1
     2    38    39    1
     3     1    38    1
     4     1    18    1
     5    18    19    2
     6    18    20   am
     7    20    22    1
     8    22    23    1
     9    23    24   ar
    10    24    25   ar
    11    25    29    1
    12    29    30    1
    13    29    31    1
    14    29    32    1
    15    25    26   ar
    16    26    27   ar
    17    27    33    1
    18    33    34    1
    19    33    35    1
    20    33    36    1
    21    27    28   ar
    22     1     2    1
    23     2     3    1
    24     3     4    1
    25     4     6    1
    26     6     7    1
    27     7     8    1
    28     8     9    1
    29     9    12    1
    30    12    13   ar
    31    13    14   ar
    32    14    15   ar
    33    15    16   ar
    34    16    17   ar
    35     9    10    1
    36    10    11    1
    37     4     5    1
    38     5     1    1
    39    28    23   ar
    40    11     6    1
    41    17    12   ar
    42    20    21    1
@<TRIPOS>MOLECULE
*****
 39 42 0 0 0
SMALL
GASTEIGER

@<TRIPOS>ATOM
      1 C         140.0351  139.8630  157.9727 C.3     1  UNL1        0.0702
      2 C         140.8762  140.5088  156.9118 C.3     1  UNL1        0.0100
      3 C         141.6339  139.4280  156.1993 C.3     1  UNL1        0.0164
      4 C         141.2611  138.1142  156.8197 C.3     1  UNL1        0.0580
      5 C         140.2730  138.3831  157.9157 C.3     1  UNL1        0.0246
      6 N         141.7845  136.7680  156.4151 N.3     1  UNL1       -0.2739
      7 C         143.0506  136.2417  157.0233 C.3     1  UNL1        0.0724
      8 C         143.5740  134.8955  156.6188 C.3     1  UNL1        0.0218
      9 C         142.8313  134.0755  155.6059 C.3     1  UNL1        0.0266
     10 C         141.5651  134.6018  154.9976 C.3     1  UNL1        0.0218
     11 C         141.0417  135.9480  155.4022 C.3     1  UNL1        0.0724
     12 C         143.3547  132.7292  155.2013 C.ar    1  UNL1       -0.0033
     13 C         144.3229  132.0036  156.0879 C.ar    1  UNL1       -0.0011
     14 C         144.8463  130.6574  155.6833 C.ar    1  UNL1        0.0204
     15 C         144.4015  130.0368  154.3922 C.ar    1  UNL1        0.0989
     16 N         143.4332  130.7624  153.5056 N.ar    1  UNL1       -0.2426
     17 C         142.9098  132.1087  153.9101 C.ar    1  UNL1        0.0946
     18 C         139.1035  139.5112  159.0944 C.2     1  UNL1        0.2218
     19 O         137.6472  139.8566  158.9962 O.2     1  UNL1       -0.2751
     20 N         139.6283  138.8138  160.3144 N.am    1  UNL1       -0.3004
     21 H         140.5842  138.5870  160.3789 H       1  UNL1        0.1497
     22 C         138.6968  138.4620  161.4362 C.3     1  UNL1        0.1163
     23 C         138.4862  139.4255  162.5665 C.ar    1  UNL1       -0.0027
     24 C         138.5879  138.9505  163.9856 C.ar    1  UNL1        0.0012
     25 C         138.3774  139.9140  165.1158 C.ar    1  UNL1        0.0711
     26 C         138.0652  141.3524  164.8268 C.ar    1  UNL1        0.0077
     27 C         137.9636  141.8274  163.4077 C.ar    1  UNL1        0.0711
     28 C         138.1741  140.8639  162.2775 C.ar    1  UNL1        0.0012
     29 C         138.4790  139.4391  166.5350 C.3     1  UNL1        0.4186
     30 F         138.5807  138.9642  167.9542 F       1  UNL1       -0.1659
     31 F         139.2272  140.6871  166.8990 F       1  UNL1       -0.1659
     32 F         137.7308  138.1911  166.1710 F       1  UNL1       -0.1659
     33 C         137.6514  143.2658  163.1187 C.3     1  UNL1        0.4186
     34 F         137.3392  144.7042  162.8297 F       1  UNL1       -0.1659
     35 F         137.6416  143.5592  164.5897 F       1  UNL1       -0.1659
     36 F         137.6612  142.9724  161.6477 F       1  UNL1       -0.1659
     37 C         140.0920  141.9636  159.5004 C.3     1  UNL1        0.0005
     38 C         139.6025  141.2693  158.2641 C.3     1  UNL1        0.0082
     39 C         138.6804  141.9815  157.3193 C.3     1  UNL1        0.0005
@<TRIPOS>BOND
     1    37    38    1
     2    38    39    1
     3     1    38    1
     4     1    18    1
     5    18    19    2
     6    18    20   am
     7    20    22    1
     8    22    23    1
     9    23    24   ar
    10    24    25   ar
    11    25    29    1
    12    29    30    1
    13    29    31    1
    14    29    32    1
    15    25    26   ar
    16    26    27   ar
    17    27    33    1
    18    33    34    1
    19    33    35    1
    20    33    36    1
    21    27    28   ar
    22     1     2    1
    23     2     3    1
    24     3     4    1
    25     4     6    1
    26     6     7    1
    27     7     8    1
    28     8     9    1
    29     9    12    1
    30    12    13   ar
    31    13    14   ar
    32    14    15   ar
    33    15    16   ar
    34    16    17   ar
    35     9    10    1
    36    10    11    1
    37     4     5    1
    38     5     1    1
    39    28    23   ar
    40    11     6    1
    41    17    12   ar
    42    20    21    1
@<TRIPOS>MOLECULE
*****
 39 42 0 0 0
SMALL
GASTEIGER

@<TRIPOS>ATOM
      1 C         140.0646  144.6795  158.2188 C.3     1  UNL1        0.0702
      2 C         139.5675  144.0250  156.9640 C.3     1  UNL1        0.0100
      3 C         139.2418  145.1052  155.9755 C.3     1  UNL1        0.0164
      4 C         139.5377  146.4273  156.6194 C.3     1  UNL1        0.0580
      5 C         140.0462  146.1642  158.0058 C.3     1  UNL1        0.0246
      6 N         139.3568  147.7757  155.9877 N.3     1  UNL1       -0.2739
      7 C         139.9372  148.0532  154.6327 C.3     1  UNL1        0.0724
      8 C         139.7563  149.4016  154.0010 C.3     1  UNL1        0.0218
      9 C         138.9949  150.4727  154.7244 C.3     1  UNL1        0.0266
     10 C         138.4145  150.1951  156.0795 C.3     1  UNL1        0.0218
     11 C         138.5954  148.8467  156.7112 C.3     1  UNL1        0.0724
     12 C         138.8140  151.8211  154.0928 C.ar    1  UNL1       -0.0033
     13 C         138.5848  153.0279  154.9536 C.ar    1  UNL1       -0.0011
     14 C         138.4039  154.3763  154.3220 C.ar    1  UNL1        0.0204
     15 C         138.4523  154.5179  152.8294 C.ar    1  UNL1        0.0989
     16 N         138.6815  153.3111  151.9685 N.ar    1  UNL1       -0.2426
     17 C         138.8624  151.9626  152.6002 C.ar    1  UNL1        0.0946
     18 C         140.5885  145.0393  159.5775 C.2     1  UNL1        0.2218
     19 O         142.0344  144.8150  159.9074 O.2     1  UNL1       -0.2751
     20 N         139.6663  145.6236  160.6063 N.am    1  UNL1       -0.3004
     21 H         138.7173  145.7708  160.3898 H       1  UNL1        0.1497
     22 C         140.1902  145.9834  161.9650 C.3     1  UNL1        0.1163
     23 C         140.5514  144.9022  162.9401 C.ar    1  UNL1       -0.0027
     24 C         139.5167  143.9061  163.3726 C.ar    1  UNL1        0.0012
     25 C         139.8779  142.8250  164.3476 C.ar    1  UNL1        0.0711
     26 C         141.2738  142.7401  164.8902 C.ar    1  UNL1        0.0077
     27 C         142.3085  143.7363  164.4577 C.ar    1  UNL1        0.0711
     28 C         141.9473  144.8173  163.4826 C.ar    1  UNL1        0.0012
     29 C         138.8433  141.8288  164.7802 C.3     1  UNL1        0.4186
     30 F         137.8086  140.8326  165.2127 F       1  UNL1       -0.1659
     31 F         137.7786  142.6413  164.1047 F       1  UNL1       -0.1659
     32 F         139.9079  141.0163  165.4557 F       1  UNL1       -0.1659
     33 C         143.7043  143.6513  165.0002 C.3     1  UNL1        0.4186
     34 F         145.1002  143.5664  165.5428 F       1  UNL1       -0.1659
     35 F         144.0686  144.9035  164.2590 F       1  UNL1       -0.1659
     36 F         143.3401  142.3992  165.7414 F       1  UNL1       -0.1659
     37 C         141.3064  142.3974  158.2179 C.3     1  UNL1        0.0005
     38 C         140.1926  143.2701  158.7158 C.3     1  UNL1        0.0082
     39 C         139.2067  142.7332  159.7108 C.3     1  UNL1        0.0005
@<TRIPOS>BOND
     1    37    38    1
     2    38    39    1
     3     1    38    1
     4     1    18    1
     5    18    19    2
     6    18    20   am
     7    20    22    1
     8    22    23    1
     9    23    24   ar
    10    24    25   ar
    11    25    29    1
    12    29    30    1
    13    29    31    1
    14    29    32    1
    15    25    26   ar
    16    26    27   ar
    17    27    33    1
    18    33    34    1
    19    33    35    1
    20    33    36    1
    21    27    28   ar
    22     1     2    1
    23     2     3    1
    24     3     4    1
    25     4     6    1
    26     6     7    1
    27     7     8    1
    28     8     9    1
    29     9    12    1
    30    12    13   ar
    31    13    14   ar
    32    14    15   ar
    33    15    16   ar
    34    16    17   ar
    35     9    10    1
    36    10    11    1
    37     4     5    1
    38     5     1    1
    39    28    23   ar
    40    11     6    1
    41    17    12   ar
    42    20    21    1
@<TRIPOS>MOLECULE
*****
 39 42 0 0 0
SMALL
GASTEIGER

@<TRIPOS>ATOM
      1 C         143.4944  142.9945  163.3364 C.3     1  UNL1        0.0702
      2 C         144.6311  143.4291  162.4595 C.3     1  UNL1        0.0100
      3 C         144.6277  142.5646  161.2338 C.3     1  UNL1        0.0164
      4 C         143.4889  141.5957  161.3530 C.3     1  UNL1        0.0580
      5 C         142.7884  141.8614  162.6526 C.3     1  UNL1        0.0246
      6 N         143.1159  140.5454  160.3491 N.3     1  UNL1       -0.2739
      7 C         143.3605  139.0970  160.6528 C.3     1  UNL1        0.0724
      8 C         142.9876  138.0468  159.6488 C.3     1  UNL1        0.0218
      9 C         142.3700  138.4450  158.3411 C.3     1  UNL1        0.0266
     10 C         142.1255  139.8935  158.0374 C.3     1  UNL1        0.0218
     11 C         142.4984  140.9437  159.0414 C.3     1  UNL1        0.0724
     12 C         141.9971  137.3947  157.3372 C.ar    1  UNL1       -0.0033
     13 C         140.7403  137.5401  156.5314 C.ar    1  UNL1       -0.0011
     14 C         140.3674  136.4899  155.5275 C.ar    1  UNL1        0.0204
     15 C         141.2513  135.2943  155.3293 C.ar    1  UNL1        0.0989
     16 N         142.5081  135.1489  156.1351 N.ar    1  UNL1       -0.2426
     17 C         142.8811  136.1991  157.1391 C.ar    1  UNL1        0.0946
     18 C         142.4600  142.7878  164.4028 C.2     1  UNL1        0.2218
     19 O         142.7252  141.8344  165.5302 O.2     1  UNL1       -0.2751
     20 N         141.1604  143.5344  164.3420 N.am    1  UNL1       -0.3004
     21 H         140.9863  144.1601  163.6021 H       1  UNL1        0.1497
     22 C         140.1261  143.3276  165.4085 C.3     1  UNL1        0.1163
     23 C         139.8386  141.9459  165.9167 C.ar    1  UNL1       -0.0027
     24 C         139.4446  140.8612  164.9585 C.ar    1  UNL1        0.0012
     25 C         139.1572  139.4796  165.4667 C.ar    1  UNL1        0.0711
     26 C         139.2636  139.1826  166.9331 C.ar    1  UNL1        0.0077
     27 C         139.6575  140.2673  167.8914 C.ar    1  UNL1        0.0711
     28 C         139.9450  141.6489  167.3831 C.ar    1  UNL1        0.0012
     29 C         138.7632  138.3948  164.5084 C.3     1  UNL1        0.4186
     30 F         138.3693  137.3100  163.5503 F       1  UNL1       -0.1659
     31 F         139.4495  137.3805  165.3746 F       1  UNL1       -0.1659
     32 F         138.0769  139.4090  163.6423 F       1  UNL1       -0.1659
     33 C         139.7639  139.9703  169.3578 C.3     1  UNL1        0.4186
     34 F         139.8704  139.6733  170.8243 F       1  UNL1       -0.1659
     35 F         141.2600  139.9680  169.2488 F       1  UNL1       -0.1659
     36 F         138.2679  139.9726  169.4668 F       1  UNL1       -0.1659
     37 C         144.7873  143.7412  165.4626 C.3     1  UNL1        0.0005
     38 C         143.9841  144.0844  164.2432 C.3     1  UNL1        0.0082
     39 C         143.6705  145.5176  163.9306 C.3     1  UNL1        0.0005
@<TRIPOS>BOND
     1    37    38    1
     2    38    39    1
     3     1    38    1
     4     1    18    1
     5    18    19    2
     6    18    20   am
     7    20    22    1
     8    22    23    1
     9    23    24   ar
    10    24    25   ar
    11    25    29    1
    12    29    30    1
    13    29    31    1
    14    29    32    1
    15    25    26   ar
    16    26    27   ar
    17    27    33    1
    18    33    34    1
    19    33    35    1
    20    33    36    1
    21    27    28   ar
    22     1     2    1
    23     2     3    1
    24     3     4    1
    25     4     6    1
    26     6     7    1
    27     7     8    1
    28     8     9    1
    29     9    12    1
    30    12    13   ar
    31    13    14   ar
    32    14    15   ar
    33    15    16   ar
    34    16    17   ar
    35     9    10    1
    36    10    11    1
    37     4     5    1
    38     5     1    1
    39    28    23   ar
    40    11     6    1
    41    17    12   ar
    42    20    21    1
@<TRIPOS>MOLECULE
*****
 39 42 0 0 0
SMALL
GASTEIGER

@<TRIPOS>ATOM
      1 C         142.4208  138.8743  159.4014 C.3     1  UNL1        0.0702
      2 C         142.3696  139.5651  158.0709 C.3     1  UNL1        0.0100
      3 C         142.5746  138.5312  157.0037 C.3     1  UNL1        0.0164
      4 C         142.7526  137.2015  157.6745 C.3     1  UNL1        0.0580
      5 C         142.6575  137.4135  159.1564 C.3     1  UNL1        0.0246
      6 N         142.9848  135.8900  156.9846 N.3     1  UNL1       -0.2739
      7 C         143.5143  134.7190  157.7581 C.3     1  UNL1        0.0724
      8 C         143.7466  133.4075  157.0683 C.3     1  UNL1        0.0218
      9 C         143.4492  133.2669  155.6048 C.3     1  UNL1        0.0266
     10 C         142.9197  134.4379  154.8312 C.3     1  UNL1        0.0218
     11 C         142.6874  135.7494  155.5211 C.3     1  UNL1        0.0724
     12 C         143.6814  131.9553  154.9149 C.ar    1  UNL1       -0.0033
     13 C         144.4982  130.8901  155.5843 C.ar    1  UNL1       -0.0011
     14 C         144.7304  129.5785  154.8944 C.ar    1  UNL1        0.0204
     15 C         144.1459  129.3323  153.5351 C.ar    1  UNL1        0.0989
     16 N         143.3291  130.3976  152.8656 N.ar    1  UNL1       -0.2426
     17 C         143.0969  131.7092  153.5555 C.ar    1  UNL1        0.0946
     18 C         142.4226  138.4713  160.8462 C.2     1  UNL1        0.2218
     19 O         143.6808  138.5847  161.6549 O.2     1  UNL1       -0.2751
     20 N         141.1662  137.9549  161.4824 N.am    1  UNL1       -0.3004
     21 H         140.3403  137.8804  160.9516 H       1  UNL1        0.1497
     22 C         141.1680  137.5519  162.9272 C.3     1  UNL1        0.1163
     23 C         140.4353  138.3828  163.9385 C.ar    1  UNL1       -0.0027
     24 C         140.6913  139.8583  164.0242 C.ar    1  UNL1        0.0012
     25 C         139.9587  140.6891  165.0355 C.ar    1  UNL1        0.0711
     26 C         138.9699  140.0445  165.9612 C.ar    1  UNL1        0.0077
     27 C         138.7139  138.5691  165.8755 C.ar    1  UNL1        0.0711
     28 C         139.4465  137.7382  164.8642 C.ar    1  UNL1        0.0012
     29 C         140.2147  142.1647  165.1212 C.3     1  UNL1        0.4186
     30 F         140.4708  143.6401  165.2069 F       1  UNL1       -0.1659
     31 F         139.9454  142.1257  166.5963 F       1  UNL1       -0.1659
     32 F         140.4840  142.2037  163.6461 F       1  UNL1       -0.1659
     33 C         137.7251  137.9245  166.8012 C.3     1  UNL1        0.4186
     34 F         136.7364  137.2798  167.7269 F       1  UNL1       -0.1659
     35 F         137.6476  139.1913  167.6006 F       1  UNL1       -0.1659
     36 F         137.8027  136.6576  166.0018 F       1  UNL1       -0.1659
     37 C         140.7981  140.6790  160.3287 C.3     1  UNL1        0.0005
     38 C         142.1845  140.2509  159.9484 C.3     1  UNL1        0.0082
     39 C         143.3346  141.1993  160.1152 C.3     1  UNL1        0.0005
@<TRIPOS>BOND
     1    37    38    1
     2    38    39    1
     3     1    38    1
     4     1    18    1
     5    18    19    2
     6    18    20   am
     7    20    22    1
     8    22    23    1
     9    23    24   ar
    10    24    25   ar
    11    25    29    1
    12    29    30    1
    13    29    31    1
    14    29    32    1
    15    25    26   ar
    16    26    27   ar
    17    27    33    1
    18    33    34    1
    19    33    35    1
    20    33    36    1
    21    27    28   ar
    22     1     2    1
    23     2     3    1
    24     3     4    1
    25     4     6    1
    26     6     7    1
    27     7     8    1
    28     8     9    1
    29     9    12    1
    30    12    13   ar
    31    13    14   ar
    32    14    15   ar
    33    15    16   ar
    34    16    17   ar
    35     9    10    1
    36    10    11    1
    37     4     5    1
    38     5     1    1
    39    28    23   ar
    40    11     6    1
    41    17    12   ar
    42    20    21    1
@<TRIPOS>MOLECULE
*****
 39 42 0 0 0
SMALL
GASTEIGER

@<TRIPOS>ATOM
      1 C         143.4192  142.6206  162.7356 C.3     1  UNL1        0.0702
      2 C         144.7217  142.9458  162.0664 C.3     1  UNL1        0.0100
      3 C         144.8519  142.0701  160.8555 C.3     1  UNL1        0.0164
      4 C         143.6300  141.2037  160.7763 C.3     1  UNL1        0.0580
      5 C         142.7446  141.5439  161.9383 C.3     1  UNL1        0.0246
      6 N         143.3438  140.1773  159.7206 N.3     1  UNL1       -0.2739
      7 C         143.1586  138.7390  160.1035 C.3     1  UNL1        0.0724
      8 C         142.8724  137.7126  159.0478 C.3     1  UNL1        0.0218
      9 C         142.7714  138.1246  157.6090 C.3     1  UNL1        0.0266
     10 C         142.9566  139.5630  157.2261 C.3     1  UNL1        0.0218
     11 C         143.2428  140.5894  158.2818 C.3     1  UNL1        0.0724
     12 C         142.4852  137.0982  156.5533 C.ar    1  UNL1       -0.0033
     13 C         141.0876  136.9219  156.0380 C.ar    1  UNL1       -0.0011
     14 C         140.8014  135.8955  154.9823 C.ar    1  UNL1        0.0204
     15 C         141.9128  135.0454  154.4418 C.ar    1  UNL1        0.0989
     16 N         143.3105  135.2217  154.9571 N.ar    1  UNL1       -0.2426
     17 C         143.5967  136.2481  156.0128 C.ar    1  UNL1        0.0946
     18 C         142.2048  142.5159  163.6097 C.2     1  UNL1        0.2218
     19 O         141.3535  143.7255  163.8588 O.2     1  UNL1       -0.2751
     20 N         141.8416  141.2015  164.2347 N.am    1  UNL1       -0.3004
     21 H         142.4003  140.4076  164.0712 H       1  UNL1        0.1497
     22 C         140.6271  141.0968  165.1088 C.3     1  UNL1        0.1163
     23 C         140.7763  141.0824  166.6014 C.ar    1  UNL1       -0.0027
     24 C         139.6497  140.5941  167.4630 C.ar    1  UNL1        0.0012
     25 C         139.7989  140.5796  168.9554 C.ar    1  UNL1        0.0711
     26 C         141.0746  141.0535  169.5863 C.ar    1  UNL1        0.0077
     27 C         142.2012  141.5418  168.7247 C.ar    1  UNL1        0.0711
     28 C         142.0520  141.5562  167.2322 C.ar    1  UNL1        0.0012
     29 C         138.6723  140.0913  169.8171 C.3     1  UNL1        0.4186
     30 F         137.5458  139.6031  170.6788 F       1  UNL1       -0.1659
     31 F         139.3270  140.7034  171.0199 F       1  UNL1       -0.1659
     32 F         138.0176  139.4793  168.6144 F       1  UNL1       -0.1659
     33 C         143.4769  142.0156  169.3556 C.3     1  UNL1        0.4186
     34 F         144.7526  142.4895  169.9864 F       1  UNL1       -0.1659
     35 F         143.1356  141.2657  170.6090 F       1  UNL1       -0.1659
     36 F         143.8182  142.7655  168.1021 F       1  UNL1       -0.1659
     37 C         144.4416  143.2794  165.0313 C.3     1  UNL1        0.0005
     38 C         143.8400  143.6753  163.7156 C.3     1  UNL1        0.0082
     39 C         143.6591  145.1261  163.3799 C.3     1  UNL1        0.0005
@<TRIPOS>BOND
     1    37    38    1
     2    38    39    1
     3     1    38    1
     4     1    18    1
     5    18    19    2
     6    18    20   am
     7    20    22    1
     8    22    23    1
     9    23    24   ar
    10    24    25   ar
    11    25    29    1
    12    29    30    1
    13    29    31    1
    14    29    32    1
    15    25    26   ar
    16    26    27   ar
    17    27    33    1
    18    33    34    1
    19    33    35    1
    20    33    36    1
    21    27    28   ar
    22     1     2    1
    23     2     3    1
    24     3     4    1
    25     4     6    1
    26     6     7    1
    27     7     8    1
    28     8     9    1
    29     9    12    1
    30    12    13   ar
    31    13    14   ar
    32    14    15   ar
    33    15    16   ar
    34    16    17   ar
    35     9    10    1
    36    10    11    1
    37     4     5    1
    38     5     1    1
    39    28    23   ar
    40    11     6    1
    41    17    12   ar
    42    20    21    1
