@<TRIPOS>MOLECULE
*****
 25 28 0 0 0
SMALL
GASTEIGER

@<TRIPOS>ATOM
      1 C         140.6889  141.1340  167.4220 C.3     1  UNL1        0.0847
      2 N         141.1762  140.9776  168.8320 N.3     1  UNL1       -0.2676
      3 C         140.4364  141.6361  169.9586 C.3     1  UNL1        0.0896
      4 C         140.9238  141.4798  171.3686 C.3     1  UNL1        0.0862
      5 N         142.1509  140.6650  171.6520 N.3     1  UNL1       -0.2951
      6 C         142.8906  140.0065  170.5254 C.3     1  UNL1        0.0862
      7 C         142.4033  140.1628  169.1155 C.3     1  UNL1        0.0896
      8 H         141.8701  139.9231  172.2933 H       1  UNL1        0.1233
      9 C         138.9263  137.6109  165.2469 C.ar    1  UNL1       -0.0000
     10 C         138.1115  138.3444  166.2707 C.ar    1  UNL1       -0.0003
     11 C         138.6991  139.5188  166.9957 C.ar    1  UNL1       -0.0030
     12 C         140.1013  139.9596  166.6970 C.ar    1  UNL1       -0.0075
     13 C         140.9161  139.2260  165.6733 C.ar    1  UNL1       -0.0030
     14 C         140.3285  138.0517  164.9482 C.ar    1  UNL1       -0.0003
     15 C         140.7891  142.4646  166.7371 C.3     1  UNL1        0.0499
     16 C         141.8332  142.6892  165.6836 C.ar    1  UNL1        0.0135
     17 C         143.2868  142.5499  166.0266 C.ar    1  UNL1       -0.0012
     18 C         144.3308  142.7745  164.9733 C.ar    1  UNL1       -0.0001
     19 C         143.9212  143.1383  163.5768 C.ar    1  UNL1        0.0031
     20 C         142.4676  143.2776  163.2338 C.ar    1  UNL1        0.0366
     21 C         141.4236  143.0530  164.2873 C.ar    1  UNL1        0.1344
     22 O         139.9700  143.1923  163.9443 O.3     1  UNL1       -0.4795
     23 C         139.1662  141.9797  163.5784 C.3     1  UNL1        0.1661
     24 C         139.0150  140.7091  162.7957 C.3     1  UNL1        0.0472
     25 C         137.9253  141.1503  163.7272 C.3     1  UNL1        0.0472
@<TRIPOS>BOND
     1     9    10   ar
     2    10    11   ar
     3    11    12   ar
     4    12     1    1
     5     1    15    1
     6    15    16    1
     7    16    17   ar
     8    17    18   ar
     9    18    19   ar
    10    19    20   ar
    11    20    21   ar
    12    21    22    1
    13    22    23    1
    14    23    24    1
    15    24    25    1
    16     1     2    1
    17     2     3    1
    18     3     4    1
    19     4     5    1
    20     5     6    1
    21     6     7    1
    22    12    13   ar
    23    13    14   ar
    24    14     9   ar
    25    21    16   ar
    26    25    23    1
    27     7     2    1
    28     5     8    1
@<TRIPOS>MOLECULE
*****
 25 28 0 0 0
SMALL
GASTEIGER

@<TRIPOS>ATOM
      1 C         141.1519  142.4798  166.6941 C.3     1  UNL1        0.0847
      2 N         140.5084  142.0880  167.9911 N.3     1  UNL1       -0.2676
      3 C         139.8924  140.7286  168.1422 C.3     1  UNL1        0.0896
      4 C         139.2489  140.3368  169.4393 C.3     1  UNL1        0.0862
      5 N         139.2212  141.3043  170.5852 N.3     1  UNL1       -0.2951
      6 C         139.8372  142.6636  170.4341 C.3     1  UNL1        0.0862
      7 C         140.4807  143.0555  169.1371 C.3     1  UNL1        0.0896
      8 H         139.6968  140.8506  171.3651 H       1  UNL1        0.1233
      9 C         138.5983  143.6509  163.1787 C.ar    1  UNL1       -0.0000
     10 C         139.4423  142.4126  163.1132 C.ar    1  UNL1       -0.0003
     11 C         140.2935  142.0223  164.2850 C.ar    1  UNL1       -0.0030
     12 C         140.3007  142.8702  165.5223 C.ar    1  UNL1       -0.0075
     13 C         139.4567  144.1084  165.5878 C.ar    1  UNL1       -0.0030
     14 C         138.6055  144.4988  164.4160 C.ar    1  UNL1       -0.0003
     15 C         142.6466  142.4813  166.5689 C.3     1  UNL1        0.0499
     16 C         143.3301  141.4420  165.7305 C.ar    1  UNL1        0.0135
     17 C         143.0823  139.9858  165.9918 C.ar    1  UNL1       -0.0012
     18 C         143.7657  138.9465  165.1536 C.ar    1  UNL1       -0.0001
     19 C         144.6970  139.3633  164.0540 C.ar    1  UNL1        0.0031
     20 C         144.9448  140.8194  163.7926 C.ar    1  UNL1        0.0366
     21 C         144.2613  141.8588  164.6310 C.ar    1  UNL1        0.1344
     22 O         144.5091  143.3149  164.3697 O.3     1  UNL1       -0.4795
     23 C         143.4506  144.1495  163.7115 C.3     1  UNL1        0.1661
     24 C         142.5937  144.4574  162.5195 C.3     1  UNL1        0.0472
     25 C         142.4743  145.2871  163.7634 C.3     1  UNL1        0.0472
@<TRIPOS>BOND
     1     9    10   ar
     2    10    11   ar
     3    11    12   ar
     4    12     1    1
     5     1    15    1
     6    15    16    1
     7    16    17   ar
     8    17    18   ar
     9    18    19   ar
    10    19    20   ar
    11    20    21   ar
    12    21    22    1
    13    22    23    1
    14    23    24    1
    15    24    25    1
    16     1     2    1
    17     2     3    1
    18     3     4    1
    19     4     5    1
    20     5     6    1
    21     6     7    1
    22    12    13   ar
    23    13    14   ar
    24    14     9   ar
    25    21    16   ar
    26    25    23    1
    27     7     2    1
    28     5     8    1
@<TRIPOS>MOLECULE
*****
 25 28 0 0 0
SMALL
GASTEIGER

@<TRIPOS>ATOM
      1 C         141.1315  140.9699  167.3419 C.3     1  UNL1        0.0847
      2 N         140.9215  141.3515  168.7772 N.3     1  UNL1       -0.2676
      3 C         140.2292  142.6380  169.1176 C.3     1  UNL1        0.0896
      4 C         140.0192  143.0196  170.5530 C.3     1  UNL1        0.0862
      5 N         140.5015  142.1149  171.6479 N.3     1  UNL1       -0.2951
      6 C         141.1937  140.8285  171.3075 C.3     1  UNL1        0.0862
      7 C         141.4038  140.4468  169.8722 C.3     1  UNL1        0.0896
      8 H         139.6854  141.8706  172.2089 H       1  UNL1        0.1233
      9 C         138.5997  137.7514  165.4759 C.ar    1  UNL1       -0.0000
     10 C         139.9851  138.0086  164.9614 C.ar    1  UNL1       -0.0003
     11 C         140.8290  139.0814  165.5834 C.ar    1  UNL1       -0.0030
     12 C         140.2876  139.8971  166.7199 C.ar    1  UNL1       -0.0075
     13 C         138.9023  139.6399  167.2343 C.ar    1  UNL1       -0.0030
     14 C         138.0583  138.5671  166.6123 C.ar    1  UNL1       -0.0003
     15 C         142.1855  141.6610  166.5286 C.3     1  UNL1        0.0499
     16 C         141.8072  142.7857  165.6109 C.ar    1  UNL1        0.0135
     17 C         140.3634  143.1451  165.4205 C.ar    1  UNL1       -0.0012
     18 C         139.9852  144.2697  164.5029 C.ar    1  UNL1       -0.0001
     19 C         141.0508  145.0350  163.7755 C.ar    1  UNL1        0.0031
     20 C         142.4946  144.6756  163.9659 C.ar    1  UNL1        0.0366
     21 C         142.8728  143.5509  164.8836 C.ar    1  UNL1        0.1344
     22 O         144.3166  143.1915  165.0740 O.3     1  UNL1       -0.4795
     23 C         144.9568  142.1640  164.1882 C.3     1  UNL1        0.1661
     24 C         145.5082  141.7629  162.8522 C.3     1  UNL1        0.0472
     25 C         145.5143  140.7856  163.9901 C.3     1  UNL1        0.0472
@<TRIPOS>BOND
     1     9    10   ar
     2    10    11   ar
     3    11    12   ar
     4    12     1    1
     5     1    15    1
     6    15    16    1
     7    16    17   ar
     8    17    18   ar
     9    18    19   ar
    10    19    20   ar
    11    20    21   ar
    12    21    22    1
    13    22    23    1
    14    23    24    1
    15    24    25    1
    16     1     2    1
    17     2     3    1
    18     3     4    1
    19     4     5    1
    20     5     6    1
    21     6     7    1
    22    12    13   ar
    23    13    14   ar
    24    14     9   ar
    25    21    16   ar
    26    25    23    1
    27     7     2    1
    28     5     8    1
@<TRIPOS>MOLECULE
*****
 25 28 0 0 0
SMALL
GASTEIGER

@<TRIPOS>ATOM
      1 C         142.0773  141.0858  166.6862 C.3     1  UNL1        0.0847
      2 N         142.2707  141.2187  168.1677 N.3     1  UNL1       -0.2676
      3 C         142.6179  140.0131  168.9899 C.3     1  UNL1        0.0896
      4 C         142.8113  140.1462  170.4715 C.3     1  UNL1        0.0862
      5 N         142.6574  141.4847  171.1308 N.3     1  UNL1       -0.2951
      6 C         142.3103  142.6902  170.3085 C.3     1  UNL1        0.0862
      7 C         142.1169  142.5573  168.8270 C.3     1  UNL1        0.0896
      8 H         143.5435  141.6888  171.5930 H       1  UNL1        0.1233
      9 C         145.5375  141.7797  163.8941 C.ar    1  UNL1       -0.0000
     10 C         144.9156  142.9360  164.6196 C.ar    1  UNL1       -0.0003
     11 C         143.7622  142.7046  165.5503 C.ar    1  UNL1       -0.0030
     12 C         143.2307  141.3171  165.7555 C.ar    1  UNL1       -0.0075
     13 C         143.8526  140.1609  165.0300 C.ar    1  UNL1       -0.0030
     14 C         145.0060  140.3922  164.0994 C.ar    1  UNL1       -0.0003
     15 C         140.7305  140.7215  166.1354 C.3     1  UNL1        0.0499
     16 C         139.8114  141.7942  165.6306 C.ar    1  UNL1        0.0135
     17 C         140.1090  143.2351  165.9223 C.ar    1  UNL1       -0.0012
     18 C         139.1900  144.3078  165.4176 C.ar    1  UNL1       -0.0001
     19 C         137.9734  143.9396  164.6212 C.ar    1  UNL1        0.0031
     20 C         137.6758  142.4986  164.3295 C.ar    1  UNL1        0.0366
     21 C         138.5949  141.4259  164.8342 C.ar    1  UNL1        0.1344
     22 O         138.2973  139.9849  164.5425 O.3     1  UNL1       -0.4795
     23 C         138.0952  139.0175  165.6710 C.3     1  UNL1        0.1661
     24 C         137.6983  138.7428  167.0911 C.3     1  UNL1        0.0472
     25 C         138.1421  137.6167  166.2052 C.3     1  UNL1        0.0472
@<TRIPOS>BOND
     1     9    10   ar
     2    10    11   ar
     3    11    12   ar
     4    12     1    1
     5     1    15    1
     6    15    16    1
     7    16    17   ar
     8    17    18   ar
     9    18    19   ar
    10    19    20   ar
    11    20    21   ar
    12    21    22    1
    13    22    23    1
    14    23    24    1
    15    24    25    1
    16     1     2    1
    17     2     3    1
    18     3     4    1
    19     4     5    1
    20     5     6    1
    21     6     7    1
    22    12    13   ar
    23    13    14   ar
    24    14     9   ar
    25    21    16   ar
    26    25    23    1
    27     7     2    1
    28     5     8    1
@<TRIPOS>MOLECULE
*****
 25 28 0 0 0
SMALL
GASTEIGER

@<TRIPOS>ATOM
      1 C         141.3234  140.9694  166.4376 C.3     1  UNL1        0.0847
      2 N         142.0241  141.0015  167.7634 N.3     1  UNL1       -0.2676
      3 C         141.9129  139.8343  168.6989 C.3     1  UNL1        0.0896
      4 C         142.6137  139.8664  170.0249 C.3     1  UNL1        0.0862
      5 N         143.4256  141.0657  170.4152 N.3     1  UNL1       -0.2951
      6 C         143.5368  142.2329  169.4796 C.3     1  UNL1        0.0862
      7 C         142.8361  142.2008  168.1538 C.3     1  UNL1        0.0896
      8 H         144.3750  140.7350  170.5876 H       1  UNL1        0.1233
      9 C         138.7641  137.4377  165.3301 C.ar    1  UNL1       -0.0000
     10 C         140.2005  137.4870  164.9008 C.ar    1  UNL1       -0.0003
     11 C         141.0536  138.6642  165.2700 C.ar    1  UNL1       -0.0030
     12 C         140.4703  139.7922  166.0684 C.ar    1  UNL1       -0.0075
     13 C         139.0339  139.7428  166.4976 C.ar    1  UNL1       -0.0030
     14 C         138.1808  138.5656  166.1285 C.ar    1  UNL1       -0.0003
     15 C         141.4758  142.1146  165.4809 C.3     1  UNL1        0.0499
     16 C         140.2616  142.8341  164.9728 C.ar    1  UNL1        0.0135
     17 C         139.6774  143.9686  165.7613 C.ar    1  UNL1       -0.0012
     18 C         138.4632  144.6881  165.2532 C.ar    1  UNL1       -0.0001
     19 C         137.8333  144.2731  163.9566 C.ar    1  UNL1        0.0031
     20 C         138.4175  143.1387  163.1682 C.ar    1  UNL1        0.0366
     21 C         139.6317  142.4192  163.6763 C.ar    1  UNL1        0.1344
     22 O         140.2159  141.2847  162.8878 O.3     1  UNL1       -0.4795
     23 C         139.3335  140.1684  162.4133 C.3     1  UNL1        0.1661
     24 C         137.9846  139.5151  162.3522 C.3     1  UNL1        0.0472
     25 C         139.1539  138.8881  161.6526 C.3     1  UNL1        0.0472
@<TRIPOS>BOND
     1     9    10   ar
     2    10    11   ar
     3    11    12   ar
     4    12     1    1
     5     1    15    1
     6    15    16    1
     7    16    17   ar
     8    17    18   ar
     9    18    19   ar
    10    19    20   ar
    11    20    21   ar
    12    21    22    1
    13    22    23    1
    14    23    24    1
    15    24    25    1
    16     1     2    1
    17     2     3    1
    18     3     4    1
    19     4     5    1
    20     5     6    1
    21     6     7    1
    22    12    13   ar
    23    13    14   ar
    24    14     9   ar
    25    21    16   ar
    26    25    23    1
    27     7     2    1
    28     5     8    1
@<TRIPOS>MOLECULE
*****
 25 28 0 0 0
SMALL
GASTEIGER

@<TRIPOS>ATOM
      1 C         141.8195  140.8954  166.9693 C.3     1  UNL1        0.0847
      2 N         140.9635  141.2500  168.1488 N.3     1  UNL1       -0.2676
      3 C         140.0135  140.2380  168.7174 C.3     1  UNL1        0.0896
      4 C         139.1574  140.5927  169.8970 C.3     1  UNL1        0.0862
      5 N         139.2514  141.9593  170.5080 N.3     1  UNL1       -0.2951
      6 C         140.2014  142.9714  169.9394 C.3     1  UNL1        0.0862
      7 C         141.0574  142.6167  168.7599 C.3     1  UNL1        0.0896
      8 H         139.5117  141.8276  171.4854 H       1  UNL1        0.1233
      9 C         143.4295  144.1413  164.3006 C.ar    1  UNL1       -0.0000
     10 C         144.2419  143.6551  165.4639 C.ar    1  UNL1       -0.0003
     11 C         143.7053  142.5731  166.3535 C.ar    1  UNL1       -0.0030
     12 C         142.3562  141.9774  166.0797 C.ar    1  UNL1       -0.0075
     13 C         141.5437  142.4636  164.9164 C.ar    1  UNL1       -0.0030
     14 C         142.0804  143.5456  164.0268 C.ar    1  UNL1       -0.0003
     15 C         142.1389  139.4588  166.6793 C.3     1  UNL1        0.0499
     16 C         141.6081  138.8086  165.4361 C.ar    1  UNL1        0.0135
     17 C         140.1535  138.4557  165.3368 C.ar    1  UNL1       -0.0012
     18 C         139.6227  137.8056  164.0937 C.ar    1  UNL1       -0.0001
     19 C         140.5463  137.5082  162.9497 C.ar    1  UNL1        0.0031
     20 C         142.0008  137.8611  163.0490 C.ar    1  UNL1        0.0366
     21 C         142.5317  138.5113  164.2922 C.ar    1  UNL1        0.1344
     22 O         143.9862  138.8642  164.3915 O.3     1  UNL1       -0.4795
     23 C         144.5254  140.0424  163.6356 C.3     1  UNL1        0.1661
     24 C         144.4065  141.0310  162.5138 C.3     1  UNL1        0.0472
     25 C         145.5782  141.0943  163.4482 C.3     1  UNL1        0.0472
@<TRIPOS>BOND
     1     9    10   ar
     2    10    11   ar
     3    11    12   ar
     4    12     1    1
     5     1    15    1
     6    15    16    1
     7    16    17   ar
     8    17    18   ar
     9    18    19   ar
    10    19    20   ar
    11    20    21   ar
    12    21    22    1
    13    22    23    1
    14    23    24    1
    15    24    25    1
    16     1     2    1
    17     2     3    1
    18     3     4    1
    19     4     5    1
    20     5     6    1
    21     6     7    1
    22    12    13   ar
    23    13    14   ar
    24    14     9   ar
    25    21    16   ar
    26    25    23    1
    27     7     2    1
    28     5     8    1
@<TRIPOS>MOLECULE
*****
 25 28 0 0 0
SMALL
GASTEIGER

@<TRIPOS>ATOM
      1 C         141.3212  140.9553  167.4302 C.3     1  UNL1        0.0847
      2 N         141.6054  141.3859  168.8386 N.3     1  UNL1       -0.2676
      3 C         142.5541  142.5181  169.0998 C.3     1  UNL1        0.0896
      4 C         142.8382  142.9487  170.5084 C.3     1  UNL1        0.0862
      5 N         142.1737  142.2472  171.6556 N.3     1  UNL1       -0.2951
      6 C         141.2250  141.1150  171.3944 C.3     1  UNL1        0.0862
      7 C         140.9408  140.6844  169.9859 C.3     1  UNL1        0.0896
      8 H         141.6517  142.9556  172.1715 H       1  UNL1        0.1233
      9 C         144.6252  139.2679  164.8833 C.ar    1  UNL1       -0.0000
     10 C         144.1853  140.6896  164.6958 C.ar    1  UNL1       -0.0003
     11 C         143.0840  141.2521  165.5448 C.ar    1  UNL1       -0.0030
     12 C         142.4226  140.3928  166.5812 C.ar    1  UNL1       -0.0075
     13 C         142.8625  138.9711  166.7687 C.ar    1  UNL1       -0.0030
     14 C         143.9638  138.4087  165.9197 C.ar    1  UNL1       -0.0003
     15 C         139.9358  141.0871  166.8707 C.3     1  UNL1        0.0499
     16 C         139.5322  140.2836  165.6700 C.ar    1  UNL1        0.0135
     17 C         139.1061  138.8546  165.8326 C.ar    1  UNL1       -0.0012
     18 C         138.7025  138.0511  164.6320 C.ar    1  UNL1       -0.0001
     19 C         138.7249  138.6766  163.2688 C.ar    1  UNL1        0.0031
     20 C         139.1509  140.1056  163.1062 C.ar    1  UNL1        0.0366
     21 C         139.5546  140.9091  164.3069 C.ar    1  UNL1        0.1344
     22 O         139.9806  142.3381  164.1443 O.3     1  UNL1       -0.4795
     23 C         139.0471  143.4475  164.5291 C.3     1  UNL1        0.1661
     24 C         137.6697  144.0411  164.5399 C.3     1  UNL1        0.0472
     25 C         138.8077  144.7752  165.1848 C.3     1  UNL1        0.0472
@<TRIPOS>BOND
     1     9    10   ar
     2    10    11   ar
     3    11    12   ar
     4    12     1    1
     5     1    15    1
     6    15    16    1
     7    16    17   ar
     8    17    18   ar
     9    18    19   ar
    10    19    20   ar
    11    20    21   ar
    12    21    22    1
    13    22    23    1
    14    23    24    1
    15    24    25    1
    16     1     2    1
    17     2     3    1
    18     3     4    1
    19     4     5    1
    20     5     6    1
    21     6     7    1
    22    12    13   ar
    23    13    14   ar
    24    14     9   ar
    25    21    16   ar
    26    25    23    1
    27     7     2    1
    28     5     8    1
@<TRIPOS>MOLECULE
*****
 25 28 0 0 0
SMALL
GASTEIGER

@<TRIPOS>ATOM
      1 C         141.8901  141.2774  164.6983 C.3     1  UNL1        0.0847
      2 N         143.1643  141.6089  163.9796 N.3     1  UNL1       -0.2676
      3 C         144.4323  140.8881  164.3298 C.3     1  UNL1        0.0896
      4 C         145.7065  141.2198  163.6110 C.3     1  UNL1        0.0862
      5 N         145.7126  142.2721  162.5422 N.3     1  UNL1       -0.2951
      6 C         144.4446  142.9929  162.1920 C.3     1  UNL1        0.0862
      7 C         143.1705  142.6613  162.9107 C.3     1  UNL1        0.0896
      8 H         146.0411  141.8221  161.6878 H       1  UNL1        0.1233
      9 C         138.3168  143.9847  164.3083 C.ar    1  UNL1       -0.0000
     10 C         138.5130  142.8573  163.3385 C.ar    1  UNL1       -0.0003
     11 C         139.7041  141.9549  163.4685 C.ar    1  UNL1       -0.0030
     12 C         140.6990  142.1798  164.5683 C.ar    1  UNL1       -0.0075
     13 C         140.5028  143.3072  165.5380 C.ar    1  UNL1       -0.0030
     14 C         139.3118  144.2096  165.4081 C.ar    1  UNL1       -0.0003
     15 C         141.8070  140.0434  165.5469 C.3     1  UNL1        0.0499
     16 C         140.5005  139.6467  166.1680 C.ar    1  UNL1        0.0135
     17 C         139.5523  138.7590  165.4178 C.ar    1  UNL1       -0.0012
     18 C         138.2458  138.3623  166.0388 C.ar    1  UNL1       -0.0001
     19 C         137.8874  138.8535  167.4101 C.ar    1  UNL1        0.0031
     20 C         138.8356  139.7413  168.1603 C.ar    1  UNL1        0.0366
     21 C         140.1421  140.1379  167.5392 C.ar    1  UNL1        0.1344
     22 O         141.0903  141.0257  168.2894 O.3     1  UNL1       -0.4795
     23 C         140.5581  142.1194  169.1674 C.3     1  UNL1        0.1661
     24 C         140.3909  143.5797  169.4664 C.3     1  UNL1        0.0472
     25 C         139.8035  142.5533  170.3890 C.3     1  UNL1        0.0472
@<TRIPOS>BOND
     1     9    10   ar
     2    10    11   ar
     3    11    12   ar
     4    12     1    1
     5     1    15    1
     6    15    16    1
     7    16    17   ar
     8    17    18   ar
     9    18    19   ar
    10    19    20   ar
    11    20    21   ar
    12    21    22    1
    13    22    23    1
    14    23    24    1
    15    24    25    1
    16     1     2    1
    17     2     3    1
    18     3     4    1
    19     4     5    1
    20     5     6    1
    21     6     7    1
    22    12    13   ar
    23    13    14   ar
    24    14     9   ar
    25    21    16   ar
    26    25    23    1
    27     7     2    1
    28     5     8    1
@<TRIPOS>MOLECULE
*****
 25 28 0 0 0
SMALL
GASTEIGER

@<TRIPOS>ATOM
      1 C         141.2053  140.9834  167.2528 C.3     1  UNL1        0.0847
      2 N         141.4983  140.9187  168.7225 N.3     1  UNL1       -0.2676
      3 C         140.7140  141.7644  169.6815 C.3     1  UNL1        0.0896
      4 C         141.0070  141.6997  171.1513 C.3     1  UNL1        0.0862
      5 N         142.0843  140.7894  171.6619 N.3     1  UNL1       -0.2951
      6 C         142.8686  139.9438  170.7028 C.3     1  UNL1        0.0862
      7 C         142.5756  140.0084  169.2332 C.3     1  UNL1        0.0896
      8 H         141.6417  140.1513  172.3231 H       1  UNL1        0.1233
      9 C         138.7392  137.7616  165.3063 C.ar    1  UNL1       -0.0000
     10 C         140.1470  138.0070  164.8505 C.ar    1  UNL1       -0.0003
     11 C         140.9690  139.0809  165.4993 C.ar    1  UNL1       -0.0030
     12 C         140.3832  139.9095  166.6040 C.ar    1  UNL1       -0.0075
     13 C         138.9754  139.6641  167.0598 C.ar    1  UNL1       -0.0030
     14 C         138.1534  138.5902  166.4110 C.ar    1  UNL1       -0.0003
     15 C         141.7343  142.1219  166.4320 C.3     1  UNL1        0.0499
     16 C         140.8179  142.8721  165.5113 C.ar    1  UNL1        0.0135
     17 C         139.7112  143.7127  166.0758 C.ar    1  UNL1       -0.0012
     18 C         138.7948  144.4628  165.1552 C.ar    1  UNL1       -0.0001
     19 C         138.9851  144.3723  163.6700 C.ar    1  UNL1        0.0031
     20 C         140.0919  143.5318  163.1055 C.ar    1  UNL1        0.0366
     21 C         141.0082  142.7816  164.0262 C.ar    1  UNL1        0.1344
     22 O         142.1149  141.9410  163.4618 O.3     1  UNL1       -0.4795
     23 C         143.4511  142.5575  163.1704 C.3     1  UNL1        0.1661
     24 C         144.9490  142.4926  163.2146 C.3     1  UNL1        0.0472
     25 C         144.2673  143.6900  162.6217 C.3     1  UNL1        0.0472
@<TRIPOS>BOND
     1     9    10   ar
     2    10    11   ar
     3    11    12   ar
     4    12     1    1
     5     1    15    1
     6    15    16    1
     7    16    17   ar
     8    17    18   ar
     9    18    19   ar
    10    19    20   ar
    11    20    21   ar
    12    21    22    1
    13    22    23    1
    14    23    24    1
    15    24    25    1
    16     1     2    1
    17     2     3    1
    18     3     4    1
    19     4     5    1
    20     5     6    1
    21     6     7    1
    22    12    13   ar
    23    13    14   ar
    24    14     9   ar
    25    21    16   ar
    26    25    23    1
    27     7     2    1
    28     5     8    1
