@<TRIPOS>MOLECULE
*****
 33 36 0 0 0
SMALL
GASTEIGER

@<TRIPOS>ATOM
      1 N         142.7167  139.4957  166.8109 N.3     1  UNL1       -0.2698
      2 N         140.4196  142.5194  164.3962 N.pl3   1  UNL1       -0.2784
      3 C         141.6982  142.9153  165.0732 C.3     1  UNL1        0.0950
      4 C         142.4639  141.9074  165.8781 C.3     1  UNL1        0.0375
      5 C         141.9509  140.5036  166.0059 C.3     1  UNL1        0.0612
      6 C         140.6723  140.1078  165.3289 C.3     1  UNL1        0.0375
      7 C         139.9067  141.1157  164.5241 C.3     1  UNL1        0.0950
      8 N         139.2523  146.6419  161.3102 N.pl3   1  UNL1       -0.3277
      9 C         139.1173  145.4222  162.1728 C.ar    1  UNL1        0.2131
     10 N         137.8337  144.7343  162.5325 N.ar    1  UNL1       -0.1121
     11 N         138.1654  143.5632  163.4092 N.ar    1  UNL1       -0.1117
     12 C         139.6539  143.5273  163.5913 C.ar    1  UNL1        0.2194
     13 N         140.2422  144.6762  162.8272 N.ar    1  UNL1       -0.2979
     14 H         138.4505  147.0626  160.9236 H       1  UNL1        0.1451
     15 H         140.1426  147.0218  161.1306 H       1  UNL1        0.1451
     16 H         141.1987  144.9012  162.7659 H       1  UNL1        0.1713
     17 C         143.5188  138.4350  166.1172 C.3     1  UNL1        0.0770
     18 C         144.7851  138.8004  165.4008 C.3     1  UNL1        0.0437
     19 C         144.7317  139.6694  164.1794 C.ar    1  UNL1       -0.0207
     20 C         145.5150  140.9479  164.1336 C.ar    1  UNL1       -0.0034
     21 C         145.4617  141.8169  162.9122 C.ar    1  UNL1        0.0111
     22 C         144.6249  141.4075  161.7364 C.ar    1  UNL1        0.0577
     23 CL        144.5716  142.2765  160.5150 Cl      1  UNL1       -0.0822
     24 C         143.8416  140.1291  161.7822 C.ar    1  UNL1        0.0111
     25 C         143.8950  139.2601  163.0037 C.ar    1  UNL1       -0.0034
     26 C         142.6801  139.5486  168.3095 C.3     1  UNL1        0.1000
     27 C         141.7129  140.4604  169.0044 C.ar    1  UNL1        0.0045
     28 C         140.2835  140.0419  169.1829 C.ar    1  UNL1       -0.0021
     29 C         139.3162  140.9537  169.8779 C.ar    1  UNL1       -0.0002
     30 C         139.7783  142.2840  170.3943 C.ar    1  UNL1        0.0008
     31 C         141.2076  142.7026  170.2159 C.ar    1  UNL1        0.0111
     32 C         142.1749  141.7908  169.5209 C.ar    1  UNL1        0.0550
     33 CL        143.6042  142.2093  169.3424 Cl      1  UNL1       -0.0825
@<TRIPOS>BOND
     1     8     9    1
     2     9    10   ar
     3    10    11   ar
     4    11    12   ar
     5    12     2    1
     6     2     3    1
     7     3     4    1
     8     4     5    1
     9     5     1    1
    10     1    17    1
    11    17    18    1
    12    18    19    1
    13    19    20   ar
    14    20    21   ar
    15    21    22   ar
    16    22    23    1
    17    22    24   ar
    18    24    25   ar
    19     1    26    1
    20    26    27    1
    21    27    28   ar
    22    28    29   ar
    23    29    30   ar
    24    30    31   ar
    25    31    32   ar
    26    32    33    1
    27     5     6    1
    28     6     7    1
    29    12    13   ar
    30    13     9   ar
    31     7     2    1
    32    25    19   ar
    33    32    27   ar
    34     8    14    1
    35     8    15    1
    36    13    16    1
@<TRIPOS>MOLECULE
*****
 33 36 0 0 0
SMALL
GASTEIGER

@<TRIPOS>ATOM
      1 N         138.2235  139.7829  163.5009 N.3     1  UNL1       -0.2698
      2 N         139.6722  140.5161  167.6978 N.pl3   1  UNL1       -0.2784
      3 C         140.2273  141.3223  166.5612 C.3     1  UNL1        0.0950
      4 C         139.7444  141.0779  165.1623 C.3     1  UNL1        0.0375
      5 C         138.7064  140.0273  164.8999 C.3     1  UNL1        0.0612
      6 C         138.1514  139.2211  166.0365 C.3     1  UNL1        0.0375
      7 C         138.6343  139.4655  167.4354 C.3     1  UNL1        0.0950
      8 N         142.2866  142.5029  171.8329 N.pl3   1  UNL1       -0.3277
      9 C         141.3568  141.6737  170.9974 C.ar    1  UNL1        0.2131
     10 N         140.4395  140.5992  171.5017 N.ar    1  UNL1       -0.1121
     11 N         139.6969  140.0348  170.3270 N.ar    1  UNL1       -0.1117
     12 C         140.1551  140.7605  169.0968 C.ar    1  UNL1        0.2194
     13 N         141.1810  141.7733  169.5111 N.ar    1  UNL1       -0.2979
     14 H         142.3312  142.3626  172.8063 H       1  UNL1        0.1451
     15 H         142.8521  143.1875  171.4077 H       1  UNL1        0.1451
     16 H         141.6556  142.3945  168.9126 H       1  UNL1        0.1713
     17 C         138.4945  138.4675  162.8330 C.3     1  UNL1        0.0770
     18 C         139.5421  137.5472  163.3860 C.3     1  UNL1        0.0437
     19 C         140.9365  138.0499  163.6156 C.ar    1  UNL1       -0.0207
     20 C         141.6692  138.7579  162.5147 C.ar    1  UNL1       -0.0034
     21 C         143.0637  139.2607  162.7442 C.ar    1  UNL1        0.0111
     22 C         143.7255  139.0554  164.0746 C.ar    1  UNL1        0.0577
     23 CL        145.1200  139.5581  164.3041 Cl      1  UNL1       -0.0822
     24 C         142.9928  138.3474  165.1755 C.ar    1  UNL1        0.0111
     25 C         141.5983  137.8447  164.9459 C.ar    1  UNL1       -0.0034
     26 C         137.4696  140.8540  162.7699 C.3     1  UNL1        0.1000
     27 C         138.1221  142.1765  162.4957 C.ar    1  UNL1        0.0045
     28 C         137.7173  143.3895  163.2799 C.ar    1  UNL1       -0.0021
     29 C         138.3699  144.7120  163.0057 C.ar    1  UNL1       -0.0002
     30 C         139.4272  144.8216  161.9474 C.ar    1  UNL1        0.0008
     31 C         139.8320  143.6087  161.1633 C.ar    1  UNL1        0.0111
     32 C         139.1795  142.2861  161.4374 C.ar    1  UNL1        0.0550
     33 CL        139.5843  141.0732  160.6533 Cl      1  UNL1       -0.0825
@<TRIPOS>BOND
     1     8     9    1
     2     9    10   ar
     3    10    11   ar
     4    11    12   ar
     5    12     2    1
     6     2     3    1
     7     3     4    1
     8     4     5    1
     9     5     1    1
    10     1    17    1
    11    17    18    1
    12    18    19    1
    13    19    20   ar
    14    20    21   ar
    15    21    22   ar
    16    22    23    1
    17    22    24   ar
    18    24    25   ar
    19     1    26    1
    20    26    27    1
    21    27    28   ar
    22    28    29   ar
    23    29    30   ar
    24    30    31   ar
    25    31    32   ar
    26    32    33    1
    27     5     6    1
    28     6     7    1
    29    12    13   ar
    30    13     9   ar
    31     7     2    1
    32    25    19   ar
    33    32    27   ar
    34     8    14    1
    35     8    15    1
    36    13    16    1
@<TRIPOS>MOLECULE
*****
 33 36 0 0 0
SMALL
GASTEIGER

@<TRIPOS>ATOM
      1 N         138.1135  140.4049  163.6442 N.3     1  UNL1       -0.2698
      2 N         140.2354  140.4346  167.6123 N.pl3   1  UNL1       -0.2784
      3 C         139.0507  139.5390  167.4021 C.3     1  UNL1        0.0950
      4 C         138.3434  139.5291  166.0794 C.3     1  UNL1        0.0375
      5 C         138.8208  140.4148  164.9669 C.3     1  UNL1        0.0612
      6 C         140.0056  141.3104  165.1772 C.3     1  UNL1        0.0375
      7 C         140.7129  141.3203  166.4999 C.3     1  UNL1        0.0950
      8 N         143.8372  139.6231  171.3873 N.pl3   1  UNL1       -0.3277
      9 C         142.5983  140.0715  170.6702 C.ar    1  UNL1        0.2131
     10 N         141.4641  140.8479  171.2709 N.ar    1  UNL1       -0.1121
     11 N         140.4409  141.0784  170.1986 N.ar    1  UNL1       -0.1117
     12 C         140.9428  140.4445  168.9351 C.ar    1  UNL1        0.2194
     13 N         142.2761  139.8222  169.2266 N.ar    1  UNL1       -0.2979
     14 H         143.9585  139.8363  172.3407 H       1  UNL1        0.1451
     15 H         144.5290  139.1157  170.9045 H       1  UNL1        0.1451
     16 H         142.8406  139.3355  168.5834 H       1  UNL1        0.1713
     17 C         138.0917  139.1554  162.8147 C.3     1  UNL1        0.0770
     18 C         139.2726  138.8018  161.9600 C.3     1  UNL1        0.0437
     19 C         140.6640  139.0148  162.4781 C.ar    1  UNL1       -0.0207
     20 C         141.4968  140.1445  161.9485 C.ar    1  UNL1       -0.0034
     21 C         142.8882  140.3575  162.4667 C.ar    1  UNL1        0.0111
     22 C         143.4470  139.4408  163.5144 C.ar    1  UNL1        0.0577
     23 CL        144.8384  139.6539  164.0325 Cl      1  UNL1       -0.0822
     24 C         142.6142  138.3112  164.0439 C.ar    1  UNL1        0.0111
     25 C         141.2227  138.0982  163.5258 C.ar    1  UNL1       -0.0034
     26 C         137.4280  141.6446  163.1510 C.3     1  UNL1        0.1000
     27 C         138.2345  142.7638  162.5620 C.ar    1  UNL1        0.0045
     28 C         138.8709  142.6008  161.2135 C.ar    1  UNL1       -0.0021
     29 C         139.6775  143.7200  160.6246 C.ar    1  UNL1       -0.0002
     30 C         139.8477  145.0022  161.3841 C.ar    1  UNL1        0.0008
     31 C         139.2113  145.1653  162.7326 C.ar    1  UNL1        0.0111
     32 C         138.4047  144.0461  163.3216 C.ar    1  UNL1        0.0550
     33 CL        137.7684  144.2091  164.6701 Cl      1  UNL1       -0.0825
@<TRIPOS>BOND
     1     8     9    1
     2     9    10   ar
     3    10    11   ar
     4    11    12   ar
     5    12     2    1
     6     2     3    1
     7     3     4    1
     8     4     5    1
     9     5     1    1
    10     1    17    1
    11    17    18    1
    12    18    19    1
    13    19    20   ar
    14    20    21   ar
    15    21    22   ar
    16    22    23    1
    17    22    24   ar
    18    24    25   ar
    19     1    26    1
    20    26    27    1
    21    27    28   ar
    22    28    29   ar
    23    29    30   ar
    24    30    31   ar
    25    31    32   ar
    26    32    33    1
    27     5     6    1
    28     6     7    1
    29    12    13   ar
    30    13     9   ar
    31     7     2    1
    32    25    19   ar
    33    32    27   ar
    34     8    14    1
    35     8    15    1
    36    13    16    1
@<TRIPOS>MOLECULE
*****
 33 36 0 0 0
SMALL
GASTEIGER

@<TRIPOS>ATOM
      1 N         138.6788  139.3809  164.6531 N.3     1  UNL1       -0.2698
      2 N         140.5986  141.2306  168.2784 N.pl3   1  UNL1       -0.2784
      3 C         139.6235  140.1022  168.4396 C.3     1  UNL1        0.0950
      4 C         138.9836  139.4856  167.2312 C.3     1  UNL1        0.0375
      5 C         139.3187  139.9975  165.8616 C.3     1  UNL1        0.0612
      6 C         140.2938  141.1259  165.7005 C.3     1  UNL1        0.0375
      7 C         140.9337  141.7424  166.9089 C.3     1  UNL1        0.0950
      8 N         143.7083  144.1851  171.3576 N.pl3   1  UNL1       -0.3277
      9 C         142.6679  143.2052  170.9022 C.ar    1  UNL1        0.2131
     10 N         141.7787  142.3867  171.7908 N.ar    1  UNL1       -0.1121
     11 N         140.8953  141.5474  170.9160 N.ar    1  UNL1       -0.1117
     12 C         141.2385  141.8472  169.4869 C.ar    1  UNL1        0.2194
     13 N         142.3341  142.8717  169.4784 N.ar    1  UNL1       -0.2979
     14 H         143.8546  144.3363  172.3194 H       1  UNL1        0.1451
     15 H         144.2448  144.6771  170.6948 H       1  UNL1        0.1451
     16 H         142.7593  143.2576  168.6787 H       1  UNL1        0.1713
     17 C         138.7978  137.9052  164.4121 C.3     1  UNL1        0.0770
     18 C         139.9904  137.3578  163.6852 C.3     1  UNL1        0.0437
     19 C         141.3081  138.0703  163.7628 C.ar    1  UNL1       -0.0207
     20 C         141.7847  138.8941  162.6034 C.ar    1  UNL1       -0.0034
     21 C         143.1024  139.6065  162.6810 C.ar    1  UNL1        0.0111
     22 C         143.9436  139.4952  163.9180 C.ar    1  UNL1        0.0577
     23 CL        145.2612  140.2076  163.9956 Cl      1  UNL1       -0.0822
     24 C         143.4669  138.6714  165.0774 C.ar    1  UNL1        0.0111
     25 C         142.1492  137.9589  164.9998 C.ar    1  UNL1       -0.0034
     26 C         137.9197  140.2400  163.6858 C.3     1  UNL1        0.1000
     27 C         138.5242  140.5886  162.3580 C.ar    1  UNL1        0.0045
     28 C         139.3880  141.8076  162.2240 C.ar    1  UNL1       -0.0021
     29 C         139.9925  142.1561  160.8962 C.ar    1  UNL1       -0.0002
     30 C         139.7333  141.2857  159.7024 C.ar    1  UNL1        0.0008
     31 C         138.8695  140.0667  159.8364 C.ar    1  UNL1        0.0111
     32 C         138.2650  139.7181  161.1642 C.ar    1  UNL1        0.0550
     33 CL        137.4012  138.4992  161.2982 Cl      1  UNL1       -0.0825
@<TRIPOS>BOND
     1     8     9    1
     2     9    10   ar
     3    10    11   ar
     4    11    12   ar
     5    12     2    1
     6     2     3    1
     7     3     4    1
     8     4     5    1
     9     5     1    1
    10     1    17    1
    11    17    18    1
    12    18    19    1
    13    19    20   ar
    14    20    21   ar
    15    21    22   ar
    16    22    23    1
    17    22    24   ar
    18    24    25   ar
    19     1    26    1
    20    26    27    1
    21    27    28   ar
    22    28    29   ar
    23    29    30   ar
    24    30    31   ar
    25    31    32   ar
    26    32    33    1
    27     5     6    1
    28     6     7    1
    29    12    13   ar
    30    13     9   ar
    31     7     2    1
    32    25    19   ar
    33    32    27   ar
    34     8    14    1
    35     8    15    1
    36    13    16    1
@<TRIPOS>MOLECULE
*****
 33 36 0 0 0
SMALL
GASTEIGER

@<TRIPOS>ATOM
      1 N         142.7064  138.5352  164.1308 N.3     1  UNL1       -0.2698
      2 N         141.5691  140.6066  167.9605 N.pl3   1  UNL1       -0.2784
      3 C         140.8743  140.9634  166.6799 C.3     1  UNL1        0.0950
      4 C         141.2534  140.2729  165.4034 C.3     1  UNL1        0.0375
      5 C         142.3273  139.2257  165.4074 C.3     1  UNL1        0.0612
      6 C         143.0221  138.8688  166.6880 C.3     1  UNL1        0.0375
      7 C         142.6430  139.5593  167.9645 C.3     1  UNL1        0.0950
      8 N         138.9167  143.4376  171.5425 N.pl3   1  UNL1       -0.3277
      9 C         139.9708  142.5983  170.8835 C.ar    1  UNL1        0.2131
     10 N         141.2427  142.1206  171.5195 N.ar    1  UNL1       -0.1121
     11 N         141.9961  141.3164  170.5019 N.ar    1  UNL1       -0.1117
     12 C         141.1900  141.2970  169.2371 C.ar    1  UNL1        0.2194
     13 N         139.9383  142.0893  169.4729 N.ar    1  UNL1       -0.2979
     14 H         139.0289  143.7241  172.4777 H       1  UNL1        0.1451
     15 H         138.1125  143.7020  171.0398 H       1  UNL1        0.1451
     16 H         139.2214  142.2474  168.8170 H       1  UNL1        0.1713
     17 C         144.0135  138.8515  163.4667 C.3     1  UNL1        0.0770
     18 C         144.0934  139.9577  162.4567 C.3     1  UNL1        0.0437
     19 C         143.5967  141.3293  162.8058 C.ar    1  UNL1       -0.0207
     20 C         142.3814  141.8833  162.1231 C.ar    1  UNL1       -0.0034
     21 C         141.8847  143.2549  162.4722 C.ar    1  UNL1        0.0111
     22 C         142.6034  144.0726  163.5042 C.ar    1  UNL1        0.0577
     23 CL        142.1067  145.4443  163.8534 Cl      1  UNL1       -0.0822
     24 C         143.8187  143.5187  164.1870 C.ar    1  UNL1        0.0111
     25 C         144.3153  142.1470  163.8378 C.ar    1  UNL1       -0.0034
     26 C         141.7782  137.5285  163.5185 C.3     1  UNL1        0.1000
     27 C         140.6693  137.9823  162.6160 C.ar    1  UNL1        0.0045
     28 C         140.9718  138.3978  161.2067 C.ar    1  UNL1       -0.0021
     29 C         139.8629  138.8516  160.3043 C.ar    1  UNL1       -0.0002
     30 C         138.4516  138.8899  160.8110 C.ar    1  UNL1        0.0008
     31 C         138.1492  138.4743  162.2201 C.ar    1  UNL1        0.0111
     32 C         139.2580  138.0205  163.1227 C.ar    1  UNL1        0.0550
     33 CL        138.9556  137.6050  164.5318 Cl      1  UNL1       -0.0825
@<TRIPOS>BOND
     1     8     9    1
     2     9    10   ar
     3    10    11   ar
     4    11    12   ar
     5    12     2    1
     6     2     3    1
     7     3     4    1
     8     4     5    1
     9     5     1    1
    10     1    17    1
    11    17    18    1
    12    18    19    1
    13    19    20   ar
    14    20    21   ar
    15    21    22   ar
    16    22    23    1
    17    22    24   ar
    18    24    25   ar
    19     1    26    1
    20    26    27    1
    21    27    28   ar
    22    28    29   ar
    23    29    30   ar
    24    30    31   ar
    25    31    32   ar
    26    32    33    1
    27     5     6    1
    28     6     7    1
    29    12    13   ar
    30    13     9   ar
    31     7     2    1
    32    25    19   ar
    33    32    27   ar
    34     8    14    1
    35     8    15    1
    36    13    16    1
@<TRIPOS>MOLECULE
*****
 33 36 0 0 0
SMALL
GASTEIGER

@<TRIPOS>ATOM
      1 N         142.6000  138.4341  163.4399 N.3     1  UNL1       -0.2698
      2 N         142.4950  140.5971  167.3845 N.pl3   1  UNL1       -0.2784
      3 C         142.9780  139.1785  167.3197 C.3     1  UNL1        0.0950
      4 C         143.0130  138.4575  166.0048 C.3     1  UNL1        0.0375
      5 C         142.5650  139.1552  164.7548 C.3     1  UNL1        0.0612
      6 C         142.0819  140.5737  164.8196 C.3     1  UNL1        0.0375
      7 C         142.0469  141.2947  166.1345 C.3     1  UNL1        0.0950
      8 N         143.4796  144.0783  171.2307 N.pl3   1  UNL1       -0.3277
      9 C         142.9125  142.9182  170.4673 C.ar    1  UNL1        0.2131
     10 N         141.8995  141.9370  170.9784 N.ar    1  UNL1       -0.1121
     11 N         141.6199  140.9481  169.8858 N.ar    1  UNL1       -0.1117
     12 C         142.4599  141.3181  168.6995 C.ar    1  UNL1        0.2194
     13 N         143.2588  142.5357  169.0589 N.ar    1  UNL1       -0.2979
     14 H         143.1882  144.2487  172.1555 H       1  UNL1        0.1451
     15 H         144.1432  144.6693  170.8069 H       1  UNL1        0.1451
     16 H         143.8982  143.0020  168.4732 H       1  UNL1        0.1713
     17 C         141.4590  137.5459  163.0410 C.3     1  UNL1        0.0770
     18 C         140.4069  138.0533  162.0998 C.3     1  UNL1        0.0437
     19 C         139.6906  139.3371  162.3974 C.ar    1  UNL1       -0.0207
     20 C         138.6378  139.3784  163.4651 C.ar    1  UNL1       -0.0034
     21 C         137.9214  140.6622  163.7627 C.ar    1  UNL1        0.0111
     22 C         138.2578  141.9048  162.9927 C.ar    1  UNL1        0.0577
     23 CL        137.5414  143.1886  163.2903 Cl      1  UNL1       -0.0822
     24 C         139.3106  141.8635  161.9250 C.ar    1  UNL1        0.0111
     25 C         140.0270  140.5796  161.6274 C.ar    1  UNL1       -0.0034
     26 C         143.7760  138.6014  162.5239 C.3     1  UNL1        0.1000
     27 C         143.9613  139.8834  161.7677 C.ar    1  UNL1        0.0045
     28 C         143.3084  140.0660  160.4296 C.ar    1  UNL1       -0.0021
     29 C         143.4936  141.3480  159.6733 C.ar    1  UNL1       -0.0002
     30 C         144.3318  142.4476  160.2551 C.ar    1  UNL1        0.0008
     31 C         144.9847  142.2651  161.5932 C.ar    1  UNL1        0.0111
     32 C         144.7994  140.9830  162.3495 C.ar    1  UNL1        0.0550
     33 CL        145.4523  140.8004  163.6875 Cl      1  UNL1       -0.0825
@<TRIPOS>BOND
     1     8     9    1
     2     9    10   ar
     3    10    11   ar
     4    11    12   ar
     5    12     2    1
     6     2     3    1
     7     3     4    1
     8     4     5    1
     9     5     1    1
    10     1    17    1
    11    17    18    1
    12    18    19    1
    13    19    20   ar
    14    20    21   ar
    15    21    22   ar
    16    22    23    1
    17    22    24   ar
    18    24    25   ar
    19     1    26    1
    20    26    27    1
    21    27    28   ar
    22    28    29   ar
    23    29    30   ar
    24    30    31   ar
    25    31    32   ar
    26    32    33    1
    27     5     6    1
    28     6     7    1
    29    12    13   ar
    30    13     9   ar
    31     7     2    1
    32    25    19   ar
    33    32    27   ar
    34     8    14    1
    35     8    15    1
    36    13    16    1
@<TRIPOS>MOLECULE
*****
 33 36 0 0 0
SMALL
GASTEIGER

@<TRIPOS>ATOM
      1 N         138.5749  139.5716  162.8529 N.3     1  UNL1       -0.2698
      2 N         139.6850  139.9478  167.1975 N.pl3   1  UNL1       -0.2784
      3 C         140.5270  140.6110  166.1482 C.3     1  UNL1        0.0950
      4 C         140.1569  140.4856  164.7000 C.3     1  UNL1        0.0375
      5 C         138.9449  139.6969  164.3012 C.3     1  UNL1        0.0612
      6 C         138.1030  139.0337  165.3505 C.3     1  UNL1        0.0375
      7 C         138.4730  139.1591  166.7987 C.3     1  UNL1        0.0950
      8 N         142.4918  140.5427  171.6303 N.pl3   1  UNL1       -0.3277
      9 C         141.3452  140.3466  170.6833 C.ar    1  UNL1        0.2131
     10 N         139.9036  140.1856  171.0656 N.ar    1  UNL1       -0.1121
     11 N         139.1063  140.0166  169.8063 N.ar    1  UNL1       -0.1117
     12 C         140.0551  140.0732  168.6458 C.ar    1  UNL1        0.2194
     13 N         141.4387  140.2771  169.1878 N.ar    1  UNL1       -0.2979
     14 H         142.3289  140.5749  172.6007 H       1  UNL1        0.1451
     15 H         143.4074  140.6392  171.2814 H       1  UNL1        0.1451
     16 H         142.2635  140.3522  168.6555 H       1  UNL1        0.1713
     17 C         137.6199  140.5496  162.2354 C.3     1  UNL1        0.0770
     18 C         138.1429  141.7033  161.4320 C.3     1  UNL1        0.0437
     19 C         139.1337  142.6519  162.0389 C.ar    1  UNL1       -0.0207
     20 C         138.6882  143.6396  163.0762 C.ar    1  UNL1       -0.0034
     21 C         139.6790  144.5882  163.6831 C.ar    1  UNL1        0.0111
     22 C         141.1155  144.5492  163.2527 C.ar    1  UNL1        0.0577
     23 CL        142.1063  145.4978  163.8596 Cl      1  UNL1       -0.0822
     24 C         141.5610  143.5615  162.2154 C.ar    1  UNL1        0.0111
     25 C         140.5701  142.6129  161.6085 C.ar    1  UNL1       -0.0034
     26 C         139.1599  138.4681  162.0222 C.3     1  UNL1        0.1000
     27 C         140.5936  138.5366  161.5865 C.ar    1  UNL1        0.0045
     28 C         140.9626  139.2763  160.3348 C.ar    1  UNL1       -0.0021
     29 C         142.3962  139.3448  159.8991 C.ar    1  UNL1       -0.0002
     30 C         143.4610  138.6737  160.7152 C.ar    1  UNL1        0.0008
     31 C         143.0921  137.9341  161.9668 C.ar    1  UNL1        0.0111
     32 C         141.6583  137.8655  162.4026 C.ar    1  UNL1        0.0550
     33 CL        141.2894  137.1259  163.6543 Cl      1  UNL1       -0.0825
@<TRIPOS>BOND
     1     8     9    1
     2     9    10   ar
     3    10    11   ar
     4    11    12   ar
     5    12     2    1
     6     2     3    1
     7     3     4    1
     8     4     5    1
     9     5     1    1
    10     1    17    1
    11    17    18    1
    12    18    19    1
    13    19    20   ar
    14    20    21   ar
    15    21    22   ar
    16    22    23    1
    17    22    24   ar
    18    24    25   ar
    19     1    26    1
    20    26    27    1
    21    27    28   ar
    22    28    29   ar
    23    29    30   ar
    24    30    31   ar
    25    31    32   ar
    26    32    33    1
    27     5     6    1
    28     6     7    1
    29    12    13   ar
    30    13     9   ar
    31     7     2    1
    32    25    19   ar
    33    32    27   ar
    34     8    14    1
    35     8    15    1
    36    13    16    1
@<TRIPOS>MOLECULE
*****
 33 36 0 0 0
SMALL
GASTEIGER

@<TRIPOS>ATOM
      1 N         139.1720  142.8191  164.6838 N.3     1  UNL1       -0.2698
      2 N         140.5211  144.5137  160.7395 N.pl3   1  UNL1       -0.2784
      3 C         139.6106  145.3106  161.6260 C.3     1  UNL1        0.0950
      4 C         139.1610  144.7457  162.9408 C.3     1  UNL1        0.0375
      5 C         139.6217  143.3840  163.3690 C.3     1  UNL1        0.0612
      6 C         140.5322  142.5871  162.4824 C.3     1  UNL1        0.0375
      7 C         140.9818  143.1520  161.1677 C.3     1  UNL1        0.0950
      8 N         140.5081  146.9224  156.0406 N.pl3   1  UNL1       -0.3277
      9 C         140.9649  146.1857  157.2648 C.ar    1  UNL1        0.2131
     10 N         142.3610  145.7099  157.5379 N.ar    1  UNL1       -0.1121
     11 N         142.3646  145.0256  158.8727 N.ar    1  UNL1       -0.1117
     12 C         140.9708  145.0786  159.4246 C.ar    1  UNL1        0.2194
     13 N         140.1058  145.7956  158.4309 N.ar    1  UNL1       -0.2979
     14 H         141.1505  147.1341  155.3252 H       1  UNL1        0.1451
     15 H         139.5660  147.1943  155.9525 H       1  UNL1        0.1451
     16 H         139.1431  145.9781  158.5271 H       1  UNL1        0.1713
     17 C         139.8122  143.2840  165.9582 C.3     1  UNL1        0.0770
     18 C         140.9035  142.4710  166.5893 C.3     1  UNL1        0.0437
     19 C         142.1709  142.2018  165.8336 C.ar    1  UNL1       -0.0207
     20 C         142.6072  140.7892  165.5800 C.ar    1  UNL1       -0.0034
     21 C         143.8746  140.5199  164.8243 C.ar    1  UNL1        0.0111
     22 C         144.7058  141.6633  164.3222 C.ar    1  UNL1        0.0577
     23 CL        145.9732  141.3940  163.5665 Cl      1  UNL1       -0.0822
     24 C         144.2694  143.0758  164.5757 C.ar    1  UNL1        0.0111
     25 C         143.0019  143.3450  165.3315 C.ar    1  UNL1       -0.0034
     26 C         138.0820  141.7894  164.7243 C.3     1  UNL1        0.1000
     27 C         138.3880  140.3598  164.3888 C.ar    1  UNL1        0.0045
     28 C         138.9808  139.4557  165.4286 C.ar    1  UNL1       -0.0021
     29 C         139.2868  138.0261  165.0932 C.ar    1  UNL1       -0.0002
     30 C         139.0001  137.5006  163.7178 C.ar    1  UNL1        0.0008
     31 C         138.4073  138.4046  162.6780 C.ar    1  UNL1        0.0111
     32 C         138.1013  139.8343  163.0134 C.ar    1  UNL1        0.0550
     33 CL        137.5085  140.7383  161.9736 Cl      1  UNL1       -0.0825
@<TRIPOS>BOND
     1     8     9    1
     2     9    10   ar
     3    10    11   ar
     4    11    12   ar
     5    12     2    1
     6     2     3    1
     7     3     4    1
     8     4     5    1
     9     5     1    1
    10     1    17    1
    11    17    18    1
    12    18    19    1
    13    19    20   ar
    14    20    21   ar
    15    21    22   ar
    16    22    23    1
    17    22    24   ar
    18    24    25   ar
    19     1    26    1
    20    26    27    1
    21    27    28   ar
    22    28    29   ar
    23    29    30   ar
    24    30    31   ar
    25    31    32   ar
    26    32    33    1
    27     5     6    1
    28     6     7    1
    29    12    13   ar
    30    13     9   ar
    31     7     2    1
    32    25    19   ar
    33    32    27   ar
    34     8    14    1
    35     8    15    1
    36    13    16    1
@<TRIPOS>MOLECULE
*****
 33 36 0 0 0
SMALL
GASTEIGER

@<TRIPOS>ATOM
      1 N         138.6856  142.1252  163.7371 N.3     1  UNL1       -0.2698
      2 N         140.2809  144.3491  160.1652 N.pl3   1  UNL1       -0.2784
      3 C         139.4861  143.0917  159.9722 C.3     1  UNL1        0.0950
      4 C         138.9544  142.3505  161.1628 C.3     1  UNL1        0.0375
      5 C         139.2174  142.8665  162.5465 C.3     1  UNL1        0.0612
      6 C         140.0122  144.1239  162.7395 C.3     1  UNL1        0.0375
      7 C         140.5439  144.8652  161.5488 C.3     1  UNL1        0.0950
      8 N         140.5398  147.0340  155.6258 N.pl3   1  UNL1       -0.3277
      9 C         140.9317  146.3245  156.8880 C.ar    1  UNL1        0.2131
     10 N         142.3305  146.1379  157.3966 N.ar    1  UNL1       -0.1121
     11 N         142.2569  145.3752  158.6861 N.ar    1  UNL1       -0.1117
     12 C         140.8127  145.0905  158.9745 C.ar    1  UNL1        0.2194
     13 N         139.9937  145.6772  157.8632 N.ar    1  UNL1       -0.2979
     14 H         141.2320  147.4287  155.0477 H       1  UNL1        0.1451
     15 H         139.5903  147.1050  155.3755 H       1  UNL1        0.1451
     16 H         139.0127  145.6433  157.7872 H       1  UNL1        0.1713
     17 C         138.7412  142.7535  165.0980 C.3     1  UNL1        0.0770
     18 C         140.0577  142.9058  165.8006 C.3     1  UNL1        0.0437
     19 C         140.9701  141.7245  165.9483 C.ar    1  UNL1       -0.0207
     20 C         141.9138  141.3625  164.8400 C.ar    1  UNL1       -0.0034
     21 C         142.8262  140.1811  164.9877 C.ar    1  UNL1        0.0111
     22 C         142.7950  139.3617  166.2438 C.ar    1  UNL1        0.0577
     23 CL        143.7074  138.1803  166.3915 Cl      1  UNL1       -0.0822
     24 C         141.8513  139.7237  167.3521 C.ar    1  UNL1        0.0111
     25 C         140.9388  140.9051  167.2043 C.ar    1  UNL1       -0.0034
     26 C         138.0982  140.7555  163.5668 C.3     1  UNL1        0.1000
     27 C         138.9681  139.5426  163.7154 C.ar    1  UNL1        0.0045
     28 C         139.8912  139.1409  162.6033 C.ar    1  UNL1       -0.0021
     29 C         140.7611  137.9280  162.7519 C.ar    1  UNL1       -0.0002
     30 C         140.7080  137.1168  164.0125 C.ar    1  UNL1        0.0008
     31 C         139.7850  137.5185  165.1246 C.ar    1  UNL1        0.0111
     32 C         138.9151  138.7314  164.9760 C.ar    1  UNL1        0.0550
     33 CL        137.9921  139.1331  166.0881 Cl      1  UNL1       -0.0825
@<TRIPOS>BOND
     1     8     9    1
     2     9    10   ar
     3    10    11   ar
     4    11    12   ar
     5    12     2    1
     6     2     3    1
     7     3     4    1
     8     4     5    1
     9     5     1    1
    10     1    17    1
    11    17    18    1
    12    18    19    1
    13    19    20   ar
    14    20    21   ar
    15    21    22   ar
    16    22    23    1
    17    22    24   ar
    18    24    25   ar
    19     1    26    1
    20    26    27    1
    21    27    28   ar
    22    28    29   ar
    23    29    30   ar
    24    30    31   ar
    25    31    32   ar
    26    32    33    1
    27     5     6    1
    28     6     7    1
    29    12    13   ar
    30    13     9   ar
    31     7     2    1
    32    25    19   ar
    33    32    27   ar
    34     8    14    1
    35     8    15    1
    36    13    16    1
