@<TRIPOS>MOLECULE
*****
 27 30 0 0 0
SMALL
GASTEIGER

@<TRIPOS>ATOM
      1 N         138.9871  138.5117  162.6217 N.3     1  UNL1       -0.2660
      2 C         139.5676  138.0926  161.3036 C.3     1  UNL1        0.0941
      3 C         139.2206  138.8503  160.0564 C.3     1  UNL1        0.1096
      4 N         138.2932  140.0271  160.1273 N.pl3   1  UNL1       -0.2890
      5 C         137.7128  140.4462  161.4454 C.3     1  UNL1        0.1096
      6 C         138.0597  139.6885  162.6927 C.3     1  UNL1        0.0941
      7 C         137.9462  140.7849  158.8801 C.ar    1  UNL1        0.1521
      8 C         138.7666  141.9722  158.4712 C.ar    1  UNL1        0.0393
      9 C         138.4196  142.7298  157.2240 C.ar    1  UNL1        0.0436
     10 C         137.2522  142.3002  156.3857 C.ar    1  UNL1        0.1867
     11 N         136.6742  142.8472  155.1142 N.ar    1  UNL1       -0.1270
     12 N         135.4967  141.9980  154.7373 N.ar    1  UNL1       -0.1228
     13 C         135.3469  140.9261  155.7759 C.ar    1  UNL1        0.2583
     14 N         136.4319  141.1129  156.7946 N.ar    1  UNL1       -0.1866
     15 N         136.7789  140.3552  158.0418 N.ar    1  UNL1       -0.1473
     16 C         134.2965  139.8554  155.7928 C.3     1  UNL1        0.4541
     17 F         133.2461  138.7847  155.8097 F       1  UNL1       -0.1631
     18 F         133.5710  140.5843  156.8847 F       1  UNL1       -0.1631
     19 F         135.0220  139.1265  154.7008 F       1  UNL1       -0.1631
     20 C         139.3341  137.7540  163.8689 C.3     1  UNL1        0.0992
     21 F         139.1419  140.5013  169.1995 F       1  UNL1       -0.2042
     22 C         139.1900  139.8145  167.8668 C.ar    1  UNL1        0.1401
     23 C         140.3912  139.9754  166.9831 C.ar    1  UNL1        0.0294
     24 C         140.4393  139.2885  165.6504 C.ar    1  UNL1       -0.0006
     25 C         139.2861  138.4408  165.2015 C.ar    1  UNL1       -0.0060
     26 C         138.0848  138.2800  166.0853 C.ar    1  UNL1       -0.0006
     27 C         138.0367  138.9668  167.4180 C.ar    1  UNL1        0.0294
@<TRIPOS>BOND
     1    21    22    1
     2    22    23   ar
     3    23    24   ar
     4    24    25   ar
     5    25    20    1
     6    20     1    1
     7     1     2    1
     8     2     3    1
     9     3     4    1
    10     4     7    1
    11     7     8   ar
    12     8     9   ar
    13     9    10   ar
    14    10    11   ar
    15    11    12   ar
    16    12    13   ar
    17    13    16    1
    18    16    17    1
    19    16    18    1
    20    16    19    1
    21    13    14   ar
    22    14    15   ar
    23     4     5    1
    24     5     6    1
    25    25    26   ar
    26    26    27   ar
    27    27    22   ar
    28     6     1    1
    29    15     7   ar
    30    14    10   ar
@<TRIPOS>MOLECULE
*****
 27 30 0 0 0
SMALL
GASTEIGER

@<TRIPOS>ATOM
      1 N         139.9107  138.6221  163.3971 N.3     1  UNL1       -0.2660
      2 C         138.9604  138.0355  164.3986 C.3     1  UNL1        0.0941
      3 C         138.9828  138.5101  165.8213 C.3     1  UNL1        0.1096
      4 N         139.9556  139.5713  166.2426 N.pl3   1  UNL1       -0.2890
      5 C         140.9058  140.1580  165.2412 C.3     1  UNL1        0.1096
      6 C         140.8834  139.6834  163.8184 C.3     1  UNL1        0.0941
      7 C         139.9780  140.0459  167.6654 C.ar    1  UNL1        0.1521
      8 C         138.7988  139.7958  168.5582 C.ar    1  UNL1        0.0393
      9 C         138.8213  140.2704  169.9809 C.ar    1  UNL1        0.0436
     10 C         140.0229  140.9951  170.5109 C.ar    1  UNL1        0.1867
     11 N         140.3306  141.5764  171.8591 N.ar    1  UNL1       -0.1270
     12 N         141.7000  142.1858  171.7995 N.ar    1  UNL1       -0.1228
     13 C         142.2385  141.9811  170.4145 C.ar    1  UNL1        0.2583
     14 N         141.2021  141.2453  169.6182 N.ar    1  UNL1       -0.1866
     15 N         141.1796  140.7707  168.1954 N.ar    1  UNL1       -0.1473
     16 C         143.5784  142.4330  169.9138 C.3     1  UNL1        0.4541
     17 F         144.9182  142.8848  169.4131 F       1  UNL1       -0.1631
     18 F         143.6676  141.2104  169.0494 F       1  UNL1       -0.1631
     19 F         143.4891  143.6555  170.7783 F       1  UNL1       -0.1631
     20 C         139.8882  138.1475  161.9744 C.3     1  UNL1        0.0992
     21 F         144.1441  139.9434  158.1453 F       1  UNL1       -0.2042
     22 C         143.0802  139.4944  159.1026 C.ar    1  UNL1        0.1401
     23 C         141.7471  140.1819  159.1185 C.ar    1  UNL1        0.0294
     24 C         140.6831  139.7329  160.0758 C.ar    1  UNL1       -0.0006
     25 C         140.9521  138.5965  161.0171 C.ar    1  UNL1       -0.0060
     26 C         142.2853  137.9090  161.0011 C.ar    1  UNL1       -0.0006
     27 C         143.3492  138.3580  160.0439 C.ar    1  UNL1        0.0294
@<TRIPOS>BOND
     1    21    22    1
     2    22    23   ar
     3    23    24   ar
     4    24    25   ar
     5    25    20    1
     6    20     1    1
     7     1     2    1
     8     2     3    1
     9     3     4    1
    10     4     7    1
    11     7     8   ar
    12     8     9   ar
    13     9    10   ar
    14    10    11   ar
    15    11    12   ar
    16    12    13   ar
    17    13    16    1
    18    16    17    1
    19    16    18    1
    20    16    19    1
    21    13    14   ar
    22    14    15   ar
    23     4     5    1
    24     5     6    1
    25    25    26   ar
    26    26    27   ar
    27    27    22   ar
    28     6     1    1
    29    15     7   ar
    30    14    10   ar
@<TRIPOS>MOLECULE
*****
 27 30 0 0 0
SMALL
GASTEIGER

@<TRIPOS>ATOM
      1 N         143.0612  138.2633  162.5590 N.3     1  UNL1       -0.2660
      2 C         143.7320  139.2381  163.4809 C.3     1  UNL1        0.0941
      3 C         143.0462  139.6707  164.7428 C.3     1  UNL1        0.1096
      4 N         141.6895  139.1285  165.0829 N.pl3   1  UNL1       -0.2890
      5 C         141.0188  138.1537  164.1611 C.3     1  UNL1        0.1096
      6 C         141.7046  137.7211  162.8991 C.3     1  UNL1        0.0941
      7 C         141.0037  139.5611  166.3449 C.ar    1  UNL1        0.1521
      8 C         139.5594  139.2229  166.5674 C.ar    1  UNL1        0.0393
      9 C         138.8737  139.6555  167.8294 C.ar    1  UNL1        0.0436
     10 C         139.6322  140.4264  168.8688 C.ar    1  UNL1        0.1867
     11 N         139.2258  140.9827  170.2013 N.ar    1  UNL1       -0.1270
     12 N         140.4190  141.6647  170.8022 N.ar    1  UNL1       -0.1228
     13 C         141.5628  141.5299  169.8412 C.ar    1  UNL1        0.2583
     14 N         141.0765  140.7646  168.6463 N.ar    1  UNL1       -0.1866
     15 N         141.7623  140.3319  167.3843 N.ar    1  UNL1       -0.1473
     16 C         142.9494  142.0662  170.0401 C.3     1  UNL1        0.4541
     17 F         144.3361  142.6026  170.2391 F       1  UNL1       -0.1631
     18 F         142.4284  143.4657  169.8988 F       1  UNL1       -0.1631
     19 F         143.4705  140.6667  170.1815 F       1  UNL1       -0.1631
     20 C         143.7470  137.8307  161.2971 C.3     1  UNL1        0.0992
     21 F         142.5496  140.6231  156.1233 F       1  UNL1       -0.2042
     22 C         142.8489  139.9250  157.4167 C.ar    1  UNL1        0.1401
     23 C         143.5781  140.6498  158.5089 C.ar    1  UNL1        0.0294
     24 C         143.8775  139.9517  159.8024 C.ar    1  UNL1       -0.0006
     25 C         143.4477  138.5288  160.0037 C.ar    1  UNL1       -0.0060
     26 C         142.7184  137.8040  158.9114 C.ar    1  UNL1       -0.0006
     27 C         142.4191  138.5021  157.6180 C.ar    1  UNL1        0.0294
@<TRIPOS>BOND
     1    21    22    1
     2    22    23   ar
     3    23    24   ar
     4    24    25   ar
     5    25    20    1
     6    20     1    1
     7     1     2    1
     8     2     3    1
     9     3     4    1
    10     4     7    1
    11     7     8   ar
    12     8     9   ar
    13     9    10   ar
    14    10    11   ar
    15    11    12   ar
    16    12    13   ar
    17    13    16    1
    18    16    17    1
    19    16    18    1
    20    16    19    1
    21    13    14   ar
    22    14    15   ar
    23     4     5    1
    24     5     6    1
    25    25    26   ar
    26    26    27   ar
    27    27    22   ar
    28     6     1    1
    29    15     7   ar
    30    14    10   ar
@<TRIPOS>MOLECULE
*****
 27 30 0 0 0
SMALL
GASTEIGER

@<TRIPOS>ATOM
      1 N         142.1163  138.8477  160.8554 N.3     1  UNL1       -0.2660
      2 C         141.5413  140.1559  161.3117 C.3     1  UNL1        0.0941
      3 C         140.8735  140.2551  162.6511 C.3     1  UNL1        0.1096
      4 N         140.7807  139.0462  163.5343 N.pl3   1  UNL1       -0.2890
      5 C         141.3557  137.7381  163.0781 C.3     1  UNL1        0.1096
      6 C         142.0235  137.6388  161.7386 C.3     1  UNL1        0.0941
      7 C         140.1129  139.1455  164.8738 C.ar    1  UNL1        0.1521
      8 C         138.6659  138.7784  165.0195 C.ar    1  UNL1        0.0393
      9 C         137.9981  138.8777  166.3590 C.ar    1  UNL1        0.0436
     10 C         138.7774  139.3442  167.5528 C.ar    1  UNL1        0.1867
     11 N         138.3914  139.5413  168.9888 N.ar    1  UNL1       -0.1270
     12 N         139.5999  140.0304  169.7306 N.ar    1  UNL1       -0.1228
     13 C         140.7328  140.1354  168.7531 C.ar    1  UNL1        0.2583
     14 N         140.2244  139.7113  167.4071 N.ar    1  UNL1       -0.1866
     15 N         140.8921  139.6120  166.0676 N.ar    1  UNL1       -0.1473
     16 C         142.1289  140.5856  169.0665 C.3     1  UNL1        0.4541
     17 F         143.5250  141.0358  169.3799 F       1  UNL1       -0.1631
     18 F         141.6572  142.0083  169.1242 F       1  UNL1       -0.1631
     19 F         142.6005  139.1628  169.0088 F       1  UNL1       -0.1631
     20 C         142.7841  138.7485  159.5159 C.3     1  UNL1        0.0992
     21 F         139.9566  136.0826  154.9445 F       1  UNL1       -0.2042
     22 C         140.6635  136.7490  156.0873 C.ar    1  UNL1        0.1401
     23 C         142.1090  136.4490  156.3526 C.ar    1  UNL1        0.0294
     24 C         142.8159  137.1154  157.4955 C.ar    1  UNL1       -0.0006
     25 C         142.0772  138.0820  158.3731 C.ar    1  UNL1       -0.0060
     26 C         140.6316  138.3821  158.1078 C.ar    1  UNL1       -0.0006
     27 C         139.9248  137.7156  156.9649 C.ar    1  UNL1        0.0294
@<TRIPOS>BOND
     1    21    22    1
     2    22    23   ar
     3    23    24   ar
     4    24    25   ar
     5    25    20    1
     6    20     1    1
     7     1     2    1
     8     2     3    1
     9     3     4    1
    10     4     7    1
    11     7     8   ar
    12     8     9   ar
    13     9    10   ar
    14    10    11   ar
    15    11    12   ar
    16    12    13   ar
    17    13    16    1
    18    16    17    1
    19    16    18    1
    20    16    19    1
    21    13    14   ar
    22    14    15   ar
    23     4     5    1
    24     5     6    1
    25    25    26   ar
    26    26    27   ar
    27    27    22   ar
    28     6     1    1
    29    15     7   ar
    30    14    10   ar
@<TRIPOS>MOLECULE
*****
 27 30 0 0 0
SMALL
GASTEIGER

@<TRIPOS>ATOM
      1 N         141.0392  144.4122  162.4168 N.3     1  UNL1       -0.2660
      2 C         142.0721  143.3450  162.2060 C.3     1  UNL1        0.0941
      3 C         142.3933  142.3833  163.3114 C.3     1  UNL1        0.1096
      4 N         141.6817  142.4887  164.6276 N.pl3   1  UNL1       -0.2890
      5 C         140.6488  143.5557  164.8385 C.3     1  UNL1        0.1096
      6 C         140.3275  144.5175  163.7331 C.3     1  UNL1        0.0941
      7 C         142.0030  141.5269  165.7330 C.ar    1  UNL1        0.1521
      8 C         141.9626  140.0495  165.4770 C.ar    1  UNL1        0.0393
      9 C         142.2839  139.0878  166.5824 C.ar    1  UNL1        0.0436
     10 C         142.6456  139.6035  167.9437 C.ar    1  UNL1        0.1867
     11 N         143.0081  138.9020  169.2191 N.ar    1  UNL1       -0.1270
     12 N         143.2726  139.9459  170.2632 N.ar    1  UNL1       -0.1228
     13 C         143.0735  141.2926  169.6332 C.ar    1  UNL1        0.2583
     14 N         142.6860  141.0809  168.1997 N.ar    1  UNL1       -0.1866
     15 N         142.3647  142.0426  167.0943 N.ar    1  UNL1       -0.1473
     16 C         143.2338  142.6181  170.3167 C.3     1  UNL1        0.4541
     17 F         143.3941  143.9438  171.0002 F       1  UNL1       -0.1631
     18 F         141.7790  142.6058  170.6818 F       1  UNL1       -0.1631
     19 F         144.6886  142.6305  169.9515 F       1  UNL1       -0.1631
     20 C         140.7179  145.3739  161.3115 C.3     1  UNL1        0.0992
     21 F         140.1578  143.3895  155.6769 F       1  UNL1       -0.2042
     22 C         140.2979  143.8856  157.0855 C.ar    1  UNL1        0.1401
     23 C         139.5076  143.2455  158.1881 C.ar    1  UNL1        0.0294
     24 C         139.6476  143.7416  159.5968 C.ar    1  UNL1       -0.0006
     25 C         140.5779  144.8778  159.9029 C.ar    1  UNL1       -0.0060
     26 C         141.3682  145.5179  158.8002 C.ar    1  UNL1       -0.0006
     27 C         141.2282  145.0218  157.3916 C.ar    1  UNL1        0.0294
@<TRIPOS>BOND
     1    21    22    1
     2    22    23   ar
     3    23    24   ar
     4    24    25   ar
     5    25    20    1
     6    20     1    1
     7     1     2    1
     8     2     3    1
     9     3     4    1
    10     4     7    1
    11     7     8   ar
    12     8     9   ar
    13     9    10   ar
    14    10    11   ar
    15    11    12   ar
    16    12    13   ar
    17    13    16    1
    18    16    17    1
    19    16    18    1
    20    16    19    1
    21    13    14   ar
    22    14    15   ar
    23     4     5    1
    24     5     6    1
    25    25    26   ar
    26    26    27   ar
    27    27    22   ar
    28     6     1    1
    29    15     7   ar
    30    14    10   ar
@<TRIPOS>MOLECULE
*****
 27 30 0 0 0
SMALL
GASTEIGER

@<TRIPOS>ATOM
      1 N         139.9852  145.4444  155.9997 N.3     1  UNL1       -0.2660
      2 C         140.5615  145.6665  157.3667 C.3     1  UNL1        0.0941
      3 C         140.1836  144.7557  158.4970 C.3     1  UNL1        0.1096
      4 N         139.2294  143.6227  158.2604 N.pl3   1  UNL1       -0.2890
      5 C         138.6531  143.4006  156.8935 C.3     1  UNL1        0.1096
      6 C         139.0310  144.3114  155.7631 C.3     1  UNL1        0.0941
      7 C         138.8515  142.7119  159.3908 C.ar    1  UNL1        0.1521
      8 C         138.5546  141.2664  159.1220 C.ar    1  UNL1        0.0393
      9 C         138.1767  140.3557  160.2524 C.ar    1  UNL1        0.0436
     10 C         138.0958  140.8905  161.6515 C.ar    1  UNL1        0.1867
     11 N         137.7521  140.2372  162.9574 N.ar    1  UNL1       -0.1270
     12 N         137.8367  141.2791  164.0332 N.ar    1  UNL1       -0.1228
     13 C         138.2326  142.5762  163.3922 C.ar    1  UNL1        0.2583
     14 N         138.3928  142.3360  161.9202 N.ar    1  UNL1       -0.1866
     15 N         138.7706  143.2467  160.7899 N.ar    1  UNL1       -0.1473
     16 C         138.4332  143.8839  164.0990 C.3     1  UNL1        0.4541
     17 F         138.6339  145.1916  164.8059 F       1  UNL1       -0.1631
     18 F         139.5665  143.2878  164.8803 F       1  UNL1       -0.1631
     19 F         137.3000  144.4800  163.3177 F       1  UNL1       -0.1631
     20 C         140.3631  146.3552  154.8694 C.3     1  UNL1        0.0992
     21 F         138.4014  152.0249  154.8013 F       1  UNL1       -0.2042
     22 C         138.8918  150.6075  154.8183 C.ar    1  UNL1        0.1401
     23 C         138.4339  149.6684  155.8946 C.ar    1  UNL1        0.0294
     24 C         138.9244  148.2509  155.9116 C.ar    1  UNL1       -0.0006
     25 C         139.8727  147.7726  154.8524 C.ar    1  UNL1       -0.0060
     26 C         140.3305  148.7118  153.7761 C.ar    1  UNL1       -0.0006
     27 C         139.8401  150.1292  153.7591 C.ar    1  UNL1        0.0294
@<TRIPOS>BOND
     1    21    22    1
     2    22    23   ar
     3    23    24   ar
     4    24    25   ar
     5    25    20    1
     6    20     1    1
     7     1     2    1
     8     2     3    1
     9     3     4    1
    10     4     7    1
    11     7     8   ar
    12     8     9   ar
    13     9    10   ar
    14    10    11   ar
    15    11    12   ar
    16    12    13   ar
    17    13    16    1
    18    16    17    1
    19    16    18    1
    20    16    19    1
    21    13    14   ar
    22    14    15   ar
    23     4     5    1
    24     5     6    1
    25    25    26   ar
    26    26    27   ar
    27    27    22   ar
    28     6     1    1
    29    15     7   ar
    30    14    10   ar
@<TRIPOS>MOLECULE
*****
 27 30 0 0 0
SMALL
GASTEIGER

@<TRIPOS>ATOM
      1 N         141.3689  141.2733  162.2260 N.3     1  UNL1       -0.2660
      2 C         139.9731  141.4272  162.7535 C.3     1  UNL1        0.0941
      3 C         139.7032  141.2641  164.2199 C.3     1  UNL1        0.1096
      4 N         140.8291  140.9472  165.1590 N.pl3   1  UNL1       -0.2890
      5 C         142.2249  140.7934  164.6316 C.3     1  UNL1        0.1096
      6 C         142.4948  140.9564  163.1651 C.3     1  UNL1        0.0941
      7 C         140.5592  140.7842  166.6255 C.ar    1  UNL1        0.1521
      8 C         139.3393  140.0426  167.0857 C.ar    1  UNL1        0.0393
      9 C         139.0695  139.8796  168.5522 C.ar    1  UNL1        0.0436
     10 C         140.0196  140.4581  169.5585 C.ar    1  UNL1        0.1867
     11 N         140.0161  140.4571  171.0585 N.ar    1  UNL1       -0.1270
     12 N         141.2339  141.1980  171.5254 N.ar    1  UNL1       -0.1228
     13 C         141.9900  141.6569  170.3139 C.ar    1  UNL1        0.2583
     14 N         141.2395  141.1997  169.0983 N.ar    1  UNL1       -0.1866
     15 N         141.5094  141.3627  167.6318 N.ar    1  UNL1       -0.1473
     16 C         143.2716  142.4363  170.3174 C.3     1  UNL1        0.4541
     17 F         144.5533  143.2156  170.3208 F       1  UNL1       -0.1631
     18 F         144.0489  141.1586  170.2020 F       1  UNL1       -0.1631
     19 F         142.4943  143.7140  170.4327 F       1  UNL1       -0.1631
     20 C         141.6387  141.4364  160.7595 C.3     1  UNL1        0.0992
     21 F         139.8911  146.4272  157.9245 F       1  UNL1       -0.2042
     22 C         140.3280  145.1795  158.6333 C.ar    1  UNL1        0.1401
     23 C         139.9645  143.8347  158.0772 C.ar    1  UNL1        0.0294
     24 C         140.4014  142.5869  158.7859 C.ar    1  UNL1       -0.0006
     25 C         141.2018  142.6840  160.0508 C.ar    1  UNL1       -0.0060
     26 C         141.5653  144.0289  160.6069 C.ar    1  UNL1       -0.0006
     27 C         141.1284  145.2766  159.8982 C.ar    1  UNL1        0.0294
@<TRIPOS>BOND
     1    21    22    1
     2    22    23   ar
     3    23    24   ar
     4    24    25   ar
     5    25    20    1
     6    20     1    1
     7     1     2    1
     8     2     3    1
     9     3     4    1
    10     4     7    1
    11     7     8   ar
    12     8     9   ar
    13     9    10   ar
    14    10    11   ar
    15    11    12   ar
    16    12    13   ar
    17    13    16    1
    18    16    17    1
    19    16    18    1
    20    16    19    1
    21    13    14   ar
    22    14    15   ar
    23     4     5    1
    24     5     6    1
    25    25    26   ar
    26    26    27   ar
    27    27    22   ar
    28     6     1    1
    29    15     7   ar
    30    14    10   ar
@<TRIPOS>MOLECULE
*****
 27 30 0 0 0
SMALL
GASTEIGER

@<TRIPOS>ATOM
      1 N         142.0093  136.5530  156.2906 N.3     1  UNL1       -0.2660
      2 C         142.6830  137.1391  157.4959 C.3     1  UNL1        0.0941
      3 C         141.9065  138.0070  158.4413 C.3     1  UNL1        0.1096
      4 N         140.4564  138.2888  158.1814 N.pl3   1  UNL1       -0.2890
      5 C         139.7826  137.7027  156.9762 C.3     1  UNL1        0.1096
      6 C         140.5591  136.8348  156.0308 C.3     1  UNL1        0.0941
      7 C         139.6799  139.1568  159.1269 C.ar    1  UNL1        0.1521
      8 C         139.0391  140.4193  158.6315 C.ar    1  UNL1        0.0393
      9 C         138.2626  141.2872  159.5769 C.ar    1  UNL1        0.0436
     10 C         138.1270  140.8926  161.0177 C.ar    1  UNL1        0.1867
     11 N         137.4281  141.5427  162.1749 N.ar    1  UNL1       -0.1270
     12 N         137.6371  140.6819  163.3855 N.ar    1  UNL1       -0.1228
     13 C         138.4651  139.4999  162.9764 C.ar    1  UNL1        0.2583
     14 N         138.7678  139.6301  161.5131 N.ar    1  UNL1       -0.1866
     15 N         139.5443  138.7622  160.5677 N.ar    1  UNL1       -0.1473
     16 C         138.9118  138.3836  163.8733 C.3     1  UNL1        0.4541
     17 F         139.3586  137.2672  164.7701 F       1  UNL1       -0.1631
     18 F         138.2770  137.3871  162.9492 F       1  UNL1       -0.1631
     19 F         139.5466  139.3801  164.7974 F       1  UNL1       -0.1631
     20 C         142.7858  135.6850  155.3452 C.3     1  UNL1        0.0992
     21 F         142.7489  129.7241  156.0277 F       1  UNL1       -0.2042
     22 C         142.7582  131.2143  155.8571 C.ar    1  UNL1        0.1401
     23 C         141.5532  131.9129  155.3005 C.ar    1  UNL1        0.0294
     24 C         141.5623  133.4032  155.1298 C.ar    1  UNL1       -0.0006
     25 C         142.7766  134.1948  155.5159 C.ar    1  UNL1       -0.0060
     26 C         143.9816  133.4962  156.0725 C.ar    1  UNL1       -0.0006
     27 C         143.9724  132.0060  156.2432 C.ar    1  UNL1        0.0294
@<TRIPOS>BOND
     1    21    22    1
     2    22    23   ar
     3    23    24   ar
     4    24    25   ar
     5    25    20    1
     6    20     1    1
     7     1     2    1
     8     2     3    1
     9     3     4    1
    10     4     7    1
    11     7     8   ar
    12     8     9   ar
    13     9    10   ar
    14    10    11   ar
    15    11    12   ar
    16    12    13   ar
    17    13    16    1
    18    16    17    1
    19    16    18    1
    20    16    19    1
    21    13    14   ar
    22    14    15   ar
    23     4     5    1
    24     5     6    1
    25    25    26   ar
    26    26    27   ar
    27    27    22   ar
    28     6     1    1
    29    15     7   ar
    30    14    10   ar
@<TRIPOS>MOLECULE
*****
 27 30 0 0 0
SMALL
GASTEIGER

@<TRIPOS>ATOM
      1 N         142.9009  138.5507  163.8947 N.3     1  UNL1       -0.2660
      2 C         141.7722  137.9326  163.1239 C.3     1  UNL1        0.0941
      3 C         141.8225  137.8889  161.6255 C.3     1  UNL1        0.1096
      4 N         143.0016  138.4634  160.8976 N.pl3   1  UNL1       -0.2890
      5 C         144.1303  139.0815  161.6682 C.3     1  UNL1        0.1096
      6 C         144.0800  139.1252  163.1668 C.3     1  UNL1        0.0941
      7 C         143.0519  138.4197  159.3990 C.ar    1  UNL1        0.1521
      8 C         143.2169  139.6889  158.6168 C.ar    1  UNL1        0.0393
      9 C         143.2672  139.6452  157.1184 C.ar    1  UNL1        0.0436
     10 C         143.1525  138.3323  156.4021 C.ar    1  UNL1        0.1867
     11 N         143.1682  137.9796  154.9441 N.ar    1  UNL1       -0.1270
     12 N         143.0129  136.4924  154.8253 N.ar    1  UNL1       -0.1228
     13 C         142.9012  135.9260  156.2098 C.ar    1  UNL1        0.2583
     14 N         142.9875  137.0631  157.1842 N.ar    1  UNL1       -0.1866
     15 N         142.9372  137.1068  158.6827 N.ar    1  UNL1       -0.1473
     16 C         142.7328  134.4769  156.5586 C.3     1  UNL1        0.4541
     17 F         142.5643  133.0277  156.9074 F       1  UNL1       -0.1631
     18 F         141.4224  134.4536  155.8290 F       1  UNL1       -0.1631
     19 F         144.0432  134.5002  157.2882 F       1  UNL1       -0.1631
     20 C         142.8505  138.5944  165.3931 C.3     1  UNL1        0.0992
     21 F         140.2929  143.2552  168.1742 F       1  UNL1       -0.2042
     22 C         140.9323  142.0900  167.4790 C.ar    1  UNL1        0.1401
     23 C         140.1932  140.7903  167.3595 C.ar    1  UNL1        0.0294
     24 C         140.8326  139.6250  166.6642 C.ar    1  UNL1       -0.0006
     25 C         142.2111  139.7596  166.0884 C.ar    1  UNL1       -0.0060
     26 C         142.9502  141.0594  166.2079 C.ar    1  UNL1       -0.0006
     27 C         142.3108  142.2246  166.9032 C.ar    1  UNL1        0.0294
@<TRIPOS>BOND
     1    21    22    1
     2    22    23   ar
     3    23    24   ar
     4    24    25   ar
     5    25    20    1
     6    20     1    1
     7     1     2    1
     8     2     3    1
     9     3     4    1
    10     4     7    1
    11     7     8   ar
    12     8     9   ar
    13     9    10   ar
    14    10    11   ar
    15    11    12   ar
    16    12    13   ar
    17    13    16    1
    18    16    17    1
    19    16    18    1
    20    16    19    1
    21    13    14   ar
    22    14    15   ar
    23     4     5    1
    24     5     6    1
    25    25    26   ar
    26    26    27   ar
    27    27    22   ar
    28     6     1    1
    29    15     7   ar
    30    14    10   ar
