@<TRIPOS>MOLECULE
*****
 23 25 0 0 0
SMALL
GASTEIGER

@<TRIPOS>ATOM
      1 C         140.3131  143.2724  166.2135 C.ar    1  UNL1       -0.0001
      2 C         139.1250  144.1819  166.1083 C.ar    1  UNL1       -0.0003
      3 C         138.8216  144.8725  164.8118 C.ar    1  UNL1       -0.0031
      4 C         139.7063  144.6537  163.6205 C.ar    1  UNL1       -0.0071
      5 C         140.8944  143.7441  163.7257 C.ar    1  UNL1       -0.0071
      6 C         141.1978  143.0535  165.0222 C.ar    1  UNL1       -0.0031
      7 C         141.5809  143.7221  162.3921 C.3     1  UNL1        0.1218
      8 N         140.8169  144.6180  161.4627 N.3     1  UNL1       -0.1506
      9 C         139.6584  145.1937  162.2219 C.3     1  UNL1        0.1218
     10 S         141.1525  144.8904  160.0263 S.O2    1  UNL1        0.0427
     11 O         139.7910  145.4857  159.8211 O.2     1  UNL1       -0.1573
     12 O         142.5139  144.2952  160.2316 O.2     1  UNL1       -0.1573
     13 C         141.4882  145.1628  158.5900 C.3     1  UNL1        0.1460
     14 C         141.3503  144.8200  157.1362 C.3     1  UNL1        0.0270
     15 C         142.2074  145.9772  157.5559 C.3     1  UNL1        0.0270
     16 C         140.2802  143.2478  168.8113 C.2     1  UNL1        0.0598
     17 C         140.6165  142.5817  167.5100 C.2     1  UNL1        0.0047
     18 O         139.6297  141.5373  170.6554 O.2     1  UNL1       -0.2681
     19 C         140.5836  142.5571  170.1078 C.2     1  UNL1        0.2679
     20 N         141.8410  142.8863  170.8566 N.am    1  UNL1       -0.1934
     21 O         142.1444  142.1957  172.1531 O.3     1  UNL1       -0.2949
     22 H         142.4671  143.5557  170.4971 H       1  UNL1        0.1825
     23 H         141.4314  141.5720  172.3618 H       1  UNL1        0.2414
@<TRIPOS>BOND
     1    18    19    2
     2    19    16    1
     3    16    17    2
     4    17     1    1
     5     1     2   ar
     6     2     3   ar
     7     3     4   ar
     8     4     5   ar
     9     5     6   ar
    10     5     7    1
    11     7     8    1
    12     8    10    1
    13    10    11    2
    14    10    12    2
    15    10    13    1
    16    13    14    1
    17    14    15    1
    18     8     9    1
    19    19    20   am
    20    20    21    1
    21     6     1   ar
    22    15    13    1
    23     9     4    1
    24    20    22    1
    25    21    23    1
@<TRIPOS>MOLECULE
*****
 23 25 0 0 0
SMALL
GASTEIGER

@<TRIPOS>ATOM
      1 C         138.5623  139.1892  165.9565 C.ar    1  UNL1       -0.0001
      2 C         138.7813  137.8837  165.2512 C.ar    1  UNL1       -0.0003
      3 C         138.8427  137.8417  163.7530 C.ar    1  UNL1       -0.0031
      4 C         138.6850  139.1052  162.9602 C.ar    1  UNL1       -0.0071
      5 C         138.4659  140.4107  163.6655 C.ar    1  UNL1       -0.0071
      6 C         138.4046  140.4527  165.1637 C.ar    1  UNL1       -0.0031
      7 C         138.3453  141.4850  162.6255 C.3     1  UNL1        0.1218
      8 N         138.4898  140.8433  161.2775 N.3     1  UNL1       -0.1506
      9 C         138.6997  139.3725  161.4843 C.3     1  UNL1        0.1218
     10 S         138.4342  141.5485  159.9547 S.O2    1  UNL1        0.0427
     11 O         138.1194  142.8372  160.6550 O.2     1  UNL1       -0.1573
     12 O         138.7490  140.2599  159.2545 O.2     1  UNL1       -0.1573
     13 C         138.3786  142.2537  158.6320 C.3     1  UNL1        0.1460
     14 C         137.6416  142.5915  157.3700 C.3     1  UNL1        0.0270
     15 C         139.0192  143.1372  157.6030 C.3     1  UNL1        0.0270
     16 C         139.4402  140.1162  168.2192 C.2     1  UNL1        0.0598
     17 C         138.5009  139.2312  167.4547 C.2     1  UNL1        0.0047
     18 O         138.0707  139.9481  170.4206 O.2     1  UNL1       -0.2681
     19 C         139.3788  140.1583  169.7174 C.2     1  UNL1        0.2679
     20 N         140.6257  140.4104  170.5123 N.am    1  UNL1       -0.1934
     21 O         140.5643  140.4525  172.0104 O.3     1  UNL1       -0.2949
     22 H         141.4843  140.5484  170.0507 H       1  UNL1        0.1825
     23 H         139.6518  140.2988  172.3011 H       1  UNL1        0.2414
@<TRIPOS>BOND
     1    18    19    2
     2    19    16    1
     3    16    17    2
     4    17     1    1
     5     1     2   ar
     6     2     3   ar
     7     3     4   ar
     8     4     5   ar
     9     5     6   ar
    10     5     7    1
    11     7     8    1
    12     8    10    1
    13    10    11    2
    14    10    12    2
    15    10    13    1
    16    13    14    1
    17    14    15    1
    18     8     9    1
    19    19    20   am
    20    20    21    1
    21     6     1   ar
    22    15    13    1
    23     9     4    1
    24    20    22    1
    25    21    23    1
@<TRIPOS>MOLECULE
*****
 23 25 0 0 0
SMALL
GASTEIGER

@<TRIPOS>ATOM
      1 C         141.9480  142.4511  166.6387 C.ar    1  UNL1       -0.0001
      2 C         143.3873  142.6893  166.2900 C.ar    1  UNL1       -0.0003
      3 C         143.7562  143.1792  164.9211 C.ar    1  UNL1       -0.0031
      4 C         142.6858  143.4309  163.9009 C.ar    1  UNL1       -0.0071
      5 C         141.2465  143.1928  164.2497 C.ar    1  UNL1       -0.0071
      6 C         140.8776  142.7029  165.6186 C.ar    1  UNL1       -0.0031
      7 C         140.4164  143.5264  163.0456 C.3     1  UNL1        0.1218
      8 N         141.3427  143.9708  161.9527 N.3     1  UNL1       -0.1506
      9 C         142.7453  143.9118  162.4813 C.3     1  UNL1        0.1218
     10 S         140.9377  144.3990  160.5733 S.O2    1  UNL1        0.0427
     11 O         139.5028  144.4432  161.0083 O.2     1  UNL1       -0.1573
     12 O         142.3725  144.3548  160.1383 O.2     1  UNL1       -0.1573
     13 C         140.5327  144.8272  159.1940 C.3     1  UNL1        0.1460
     14 C         140.0014  144.4895  157.8325 C.3     1  UNL1        0.0270
     15 C         140.3626  145.9065  158.1663 C.3     1  UNL1        0.0270
     16 C         140.8009  142.8455  168.9362 C.2     1  UNL1        0.0598
     17 C         141.5791  141.9612  168.0077 C.2     1  UNL1        0.0047
     18 O         139.4830  143.1477  171.1547 O.2     1  UNL1       -0.2681
     19 C         140.4320  142.3556  170.3052 C.2     1  UNL1        0.2679
     20 N         141.0122  141.0735  170.8245 N.am    1  UNL1       -0.1934
     21 O         140.6433  140.5836  172.1934 O.3     1  UNL1       -0.2949
     22 H         141.6351  140.5536  170.2669 H       1  UNL1        0.1825
     23 H         140.0255  141.2081  172.6047 H       1  UNL1        0.2414
@<TRIPOS>BOND
     1    18    19    2
     2    19    16    1
     3    16    17    2
     4    17     1    1
     5     1     2   ar
     6     2     3   ar
     7     3     4   ar
     8     4     5   ar
     9     5     6   ar
    10     5     7    1
    11     7     8    1
    12     8    10    1
    13    10    11    2
    14    10    12    2
    15    10    13    1
    16    13    14    1
    17    14    15    1
    18     8     9    1
    19    19    20   am
    20    20    21    1
    21     6     1   ar
    22    15    13    1
    23     9     4    1
    24    20    22    1
    25    21    23    1
@<TRIPOS>MOLECULE
*****
 23 25 0 0 0
SMALL
GASTEIGER

@<TRIPOS>ATOM
      1 C         139.8632  140.5502  167.4707 C.ar    1  UNL1       -0.0001
      2 C         138.8233  139.4698  167.4364 C.ar    1  UNL1       -0.0003
      3 C         138.1540  139.1138  166.1421 C.ar    1  UNL1       -0.0031
      4 C         138.5246  139.8382  164.8820 C.ar    1  UNL1       -0.0071
      5 C         139.5644  140.9187  164.9163 C.ar    1  UNL1       -0.0071
      6 C         140.2338  141.2747  166.2106 C.ar    1  UNL1       -0.0031
      7 C         139.7218  141.4550  163.5242 C.3     1  UNL1        0.1218
      8 N         138.7791  140.7059  162.6297 N.3     1  UNL1       -0.1506
      9 C         138.0392  139.7067  163.4689 C.3     1  UNL1        0.1218
     10 S         138.6066  140.9186  161.1549 S.O2    1  UNL1        0.0427
     11 O         139.7118  139.9410  160.8846 O.2     1  UNL1       -0.1573
     12 O         137.5016  141.8962  161.4252 O.2     1  UNL1       -0.1573
     13 C         138.4341  141.1314  159.6801 C.3     1  UNL1        0.1460
     14 C         138.6491  141.9691  158.4546 C.3     1  UNL1        0.0270
     15 C         137.9204  140.6622  158.3513 C.3     1  UNL1        0.0270
     16 C         140.7158  142.3461  169.1434 C.2     1  UNL1        0.0598
     17 C         140.5325  140.9062  168.7650 C.2     1  UNL1        0.0047
     18 O         140.7604  142.2996  171.7406 O.2     1  UNL1       -0.2681
     19 C         141.3851  142.7021  170.4377 C.2     1  UNL1        0.2679
     20 N         142.6793  143.4606  170.4291 N.am    1  UNL1       -0.1934
     21 O         143.3486  143.8166  171.7234 O.3     1  UNL1       -0.2949
     22 H         143.0893  143.7247  169.5739 H       1  UNL1        0.1825
     23 H         142.8174  143.4846  172.4641 H       1  UNL1        0.2414
@<TRIPOS>BOND
     1    18    19    2
     2    19    16    1
     3    16    17    2
     4    17     1    1
     5     1     2   ar
     6     2     3   ar
     7     3     4   ar
     8     4     5   ar
     9     5     6   ar
    10     5     7    1
    11     7     8    1
    12     8    10    1
    13    10    11    2
    14    10    12    2
    15    10    13    1
    16    13    14    1
    17    14    15    1
    18     8     9    1
    19    19    20   am
    20    20    21    1
    21     6     1   ar
    22    15    13    1
    23     9     4    1
    24    20    22    1
    25    21    23    1
@<TRIPOS>MOLECULE
*****
 23 25 0 0 0
SMALL
GASTEIGER

@<TRIPOS>ATOM
      1 C         138.5258  139.7330  168.5856 C.ar    1  UNL1       -0.0001
      2 C         138.0192  139.0881  167.3297 C.ar    1  UNL1       -0.0003
      3 C         138.5833  139.4911  165.9995 C.ar    1  UNL1       -0.0031
      4 C         139.6541  140.5389  165.9252 C.ar    1  UNL1       -0.0071
      5 C         140.1606  141.1838  167.1812 C.ar    1  UNL1       -0.0071
      6 C         139.5965  140.7809  168.5114 C.ar    1  UNL1       -0.0031
      7 C         141.2149  142.1798  166.7982 C.3     1  UNL1        0.1218
      8 N         141.3599  142.1504  165.3055 N.3     1  UNL1       -0.1506
      9 C         140.3952  141.1363  164.7660 C.3     1  UNL1        0.1218
     10 S         142.3038  142.9880  164.4946 S.O2    1  UNL1        0.0427
     11 O         143.3632  141.9363  164.6415 O.2     1  UNL1       -0.1573
     12 O         141.2443  144.0397  164.3478 O.2     1  UNL1       -0.1573
     13 C         143.2476  143.8257  163.6838 C.3     1  UNL1        0.1460
     14 C         144.2498  143.9488  162.5745 C.3     1  UNL1        0.0270
     15 C         143.8802  145.1533  163.3885 C.3     1  UNL1        0.0270
     16 C         136.7698  138.4217  169.9809 C.2     1  UNL1        0.0598
     17 C         137.9617  139.3301  169.9158 C.2     1  UNL1        0.0047
     18 O         136.4333  136.6311  171.8330 O.2     1  UNL1       -0.2681
     19 C         136.2057  138.0187  171.3111 C.2     1  UNL1        0.2679
     20 N         135.4139  139.0036  172.1194 N.am    1  UNL1       -0.1934
     21 O         134.8498  138.6006  173.4496 O.3     1  UNL1       -0.2949
     22 H         135.2645  139.9144  171.7768 H       1  UNL1        0.1825
     23 H         135.0870  137.6787  173.6355 H       1  UNL1        0.2414
@<TRIPOS>BOND
     1    18    19    2
     2    19    16    1
     3    16    17    2
     4    17     1    1
     5     1     2   ar
     6     2     3   ar
     7     3     4   ar
     8     4     5   ar
     9     5     6   ar
    10     5     7    1
    11     7     8    1
    12     8    10    1
    13    10    11    2
    14    10    12    2
    15    10    13    1
    16    13    14    1
    17    14    15    1
    18     8     9    1
    19    19    20   am
    20    20    21    1
    21     6     1   ar
    22    15    13    1
    23     9     4    1
    24    20    22    1
    25    21    23    1
@<TRIPOS>MOLECULE
*****
 23 25 0 0 0
SMALL
GASTEIGER

@<TRIPOS>ATOM
      1 C         139.9849  140.6019  167.1388 C.ar    1  UNL1       -0.0001
      2 C         138.8818  139.5932  167.2644 C.ar    1  UNL1       -0.0003
      3 C         138.3411  138.9167  166.0396 C.ar    1  UNL1       -0.0031
      4 C         138.9035  139.2489  164.6893 C.ar    1  UNL1       -0.0071
      5 C         140.0066  140.2575  164.5638 C.ar    1  UNL1       -0.0071
      6 C         140.5473  140.9340  165.7885 C.ar    1  UNL1       -0.0031
      7 C         140.3595  140.3802  163.1110 C.3     1  UNL1        0.1218
      8 N         139.4745  139.4473  162.3387 N.3     1  UNL1       -0.1506
      9 C         138.5747  138.7481  163.3141 C.3     1  UNL1        0.1218
     10 S         139.4870  139.2485  160.8519 S.O2    1  UNL1        0.0427
     11 O         139.4171  140.7336  160.6527 O.2     1  UNL1       -0.1573
     12 O         139.5570  137.7635  161.0512 O.2     1  UNL1       -0.1573
     13 C         139.4996  139.0497  159.3653 C.3     1  UNL1        0.1460
     14 C         139.1684  139.5386  157.9864 C.3     1  UNL1        0.0270
     15 C         139.8525  138.2163  158.1691 C.3     1  UNL1        0.0270
     16 C         140.6244  142.7743  168.4122 C.2     1  UNL1        0.0598
     17 C         140.5255  141.2784  168.3636 C.2     1  UNL1        0.0047
     18 O         140.3041  144.4078  170.4069 O.2     1  UNL1       -0.2681
     19 C         141.1650  143.4508  169.6370 C.2     1  UNL1        0.2679
     20 N         142.5667  143.1702  170.0918 N.am    1  UNL1       -0.1934
     21 O         143.1073  143.8467  171.3166 O.3     1  UNL1       -0.2949
     22 H         143.1317  142.5420  169.5864 H       1  UNL1        0.1825
     23 H         142.4275  144.4281  171.6915 H       1  UNL1        0.2414
@<TRIPOS>BOND
     1    18    19    2
     2    19    16    1
     3    16    17    2
     4    17     1    1
     5     1     2   ar
     6     2     3   ar
     7     3     4   ar
     8     4     5   ar
     9     5     6   ar
    10     5     7    1
    11     7     8    1
    12     8    10    1
    13    10    11    2
    14    10    12    2
    15    10    13    1
    16    13    14    1
    17    14    15    1
    18     8     9    1
    19    19    20   am
    20    20    21    1
    21     6     1   ar
    22    15    13    1
    23     9     4    1
    24    20    22    1
    25    21    23    1
@<TRIPOS>MOLECULE
*****
 23 25 0 0 0
SMALL
GASTEIGER

@<TRIPOS>ATOM
      1 C         139.6815  139.5704  166.9160 C.ar    1  UNL1       -0.0001
      2 C         138.5628  138.6570  166.5110 C.ar    1  UNL1       -0.0003
      3 C         138.5212  138.0921  165.1221 C.ar    1  UNL1       -0.0031
      4 C         139.5983  138.4406  164.1381 C.ar    1  UNL1       -0.0071
      5 C         140.7170  139.3540  164.5430 C.ar    1  UNL1       -0.0071
      6 C         140.7586  139.9189  165.9320 C.ar    1  UNL1       -0.0031
      7 C         141.6315  139.5175  163.3652 C.3     1  UNL1        0.1218
      8 N         141.0778  138.7051  162.2323 N.3     1  UNL1       -0.1506
      9 C         139.8212  138.0395  162.7100 C.3     1  UNL1        0.1218
     10 S         141.6757  138.5802  160.8623 S.O2    1  UNL1        0.0427
     11 O         143.0401  138.8250  161.4354 O.2     1  UNL1       -0.1573
     12 O         140.3113  138.3353  160.2892 O.2     1  UNL1       -0.1573
     13 C         142.2735  138.4552  159.4923 C.3     1  UNL1        0.1460
     14 C         142.9611  139.0775  158.3133 C.3     1  UNL1        0.0270
     15 C         142.6213  137.6166  158.2982 C.3     1  UNL1        0.0270
     16 C         141.0280  140.2253  169.0392 C.2     1  UNL1        0.0598
     17 C         139.7231  140.1353  168.3049 C.2     1  UNL1        0.0047
     18 O         140.0045  140.4242  171.4189 O.2     1  UNL1       -0.2681
     19 C         141.0696  140.7902  170.4281 C.2     1  UNL1        0.2679
     20 N         142.1763  141.7211  170.8263 N.am    1  UNL1       -0.1934
     21 O         142.2179  142.2860  172.2153 O.3     1  UNL1       -0.2949
     22 H         142.8754  141.9613  170.1761 H       1  UNL1        0.1825
     23 H         141.4624  141.9513  172.7232 H       1  UNL1        0.2414
@<TRIPOS>BOND
     1    18    19    2
     2    19    16    1
     3    16    17    2
     4    17     1    1
     5     1     2   ar
     6     2     3   ar
     7     3     4   ar
     8     4     5   ar
     9     5     6   ar
    10     5     7    1
    11     7     8    1
    12     8    10    1
    13    10    11    2
    14    10    12    2
    15    10    13    1
    16    13    14    1
    17    14    15    1
    18     8     9    1
    19    19    20   am
    20    20    21    1
    21     6     1   ar
    22    15    13    1
    23     9     4    1
    24    20    22    1
    25    21    23    1
@<TRIPOS>MOLECULE
*****
 23 25 0 0 0
SMALL
GASTEIGER

@<TRIPOS>ATOM
      1 C         143.2983  138.7567  165.5968 C.ar    1  UNL1       -0.0001
      2 C         144.5213  139.2955  164.9158 C.ar    1  UNL1       -0.0003
      3 C         144.5369  139.4639  163.4253 C.ar    1  UNL1       -0.0031
      4 C         143.3295  139.0936  162.6160 C.ar    1  UNL1       -0.0071
      5 C         142.1065  138.5548  163.2971 C.ar    1  UNL1       -0.0071
      6 C         142.0909  138.3863  164.7875 C.ar    1  UNL1       -0.0031
      7 C         141.0741  138.2775  162.2447 C.3     1  UNL1        0.1218
      8 N         141.6592  138.6449  160.9133 N.3     1  UNL1       -0.1506
      9 C         143.0531  139.1493  161.1428 C.3     1  UNL1        0.1218
     10 S         140.9711  138.5283  159.5855 S.O2    1  UNL1        0.0427
     11 O         139.6474  138.4122  160.2816 O.2     1  UNL1       -0.1573
     12 O         142.2947  138.6445  158.8894 O.2     1  UNL1       -0.1573
     13 C         140.2831  138.4118  158.2577 C.3     1  UNL1        0.1460
     14 C         139.8853  137.5886  157.0686 C.3     1  UNL1        0.0270
     15 C         139.4894  139.0332  157.1469 C.3     1  UNL1        0.0270
     16 C         142.6237  139.6216  167.9520 C.2     1  UNL1        0.0598
     17 C         143.2826  138.5882  167.0873 C.2     1  UNL1        0.0047
     18 O         142.9375  138.1220  170.0502 O.2     1  UNL1       -0.2681
     19 C         142.6081  139.4531  169.4424 C.2     1  UNL1        0.2679
     20 N         142.2631  140.6159  170.3251 N.am    1  UNL1       -0.1934
     21 O         142.2474  140.4474  171.8155 O.3     1  UNL1       -0.2949
     22 H         142.0469  141.4896  169.9261 H       1  UNL1        0.1825
     23 H         142.4814  139.5332  172.0400 H       1  UNL1        0.2414
@<TRIPOS>BOND
     1    18    19    2
     2    19    16    1
     3    16    17    2
     4    17     1    1
     5     1     2   ar
     6     2     3   ar
     7     3     4   ar
     8     4     5   ar
     9     5     6   ar
    10     5     7    1
    11     7     8    1
    12     8    10    1
    13    10    11    2
    14    10    12    2
    15    10    13    1
    16    13    14    1
    17    14    15    1
    18     8     9    1
    19    19    20   am
    20    20    21    1
    21     6     1   ar
    22    15    13    1
    23     9     4    1
    24    20    22    1
    25    21    23    1
@<TRIPOS>MOLECULE
*****
 23 25 0 0 0
SMALL
GASTEIGER

@<TRIPOS>ATOM
      1 C         139.6566  140.9085  166.3919 C.ar    1  UNL1       -0.0001
      2 C         138.7755  139.7628  165.9907 C.ar    1  UNL1       -0.0003
      3 C         138.4065  139.5693  164.5498 C.ar    1  UNL1       -0.0031
      4 C         138.9187  140.5213  163.5100 C.ar    1  UNL1       -0.0071
      5 C         139.7999  141.6670  163.9112 C.ar    1  UNL1       -0.0071
      6 C         140.1688  141.8606  165.3522 C.ar    1  UNL1       -0.0031
      7 C         140.1508  142.4376  162.6730 C.3     1  UNL1        0.1218
      8 N         139.4866  141.7681  161.5066 N.3     1  UNL1       -0.1506
      9 C         138.7251  140.5838  162.0239 C.3     1  UNL1        0.1218
     10 S         139.5692  142.2061  160.0742 S.O2    1  UNL1        0.0427
     11 O         138.2951  142.9807  160.2375 O.2     1  UNL1       -0.1573
     12 O         140.8433  141.4314  159.9110 O.2     1  UNL1       -0.1573
     13 C         139.6520  142.6439  158.6420 C.3     1  UNL1        0.1460
     14 C         139.9222  142.3284  157.2007 C.3     1  UNL1        0.0270
     15 C         139.5250  143.7179  157.6025 C.3     1  UNL1        0.0270
     16 C         139.3063  140.3331  168.9011 C.2     1  UNL1        0.0598
     17 C         140.0256  141.1021  167.8329 C.2     1  UNL1        0.0047
     18 O         139.6146  139.3689  171.2939 O.2     1  UNL1       -0.2681
     19 C         139.6753  140.5266  170.3421 C.2     1  UNL1        0.2679
     20 N         140.1049  141.8780  170.8312 N.am    1  UNL1       -0.1934
     21 O         140.4739  142.0716  172.2722 O.3     1  UNL1       -0.2949
     22 H         140.1448  142.6379  170.2065 H       1  UNL1        0.1825
     23 H         140.3808  141.2301  172.7457 H       1  UNL1        0.2414
@<TRIPOS>BOND
     1    18    19    2
     2    19    16    1
     3    16    17    2
     4    17     1    1
     5     1     2   ar
     6     2     3   ar
     7     3     4   ar
     8     4     5   ar
     9     5     6   ar
    10     5     7    1
    11     7     8    1
    12     8    10    1
    13    10    11    2
    14    10    12    2
    15    10    13    1
    16    13    14    1
    17    14    15    1
    18     8     9    1
    19    19    20   am
    20    20    21    1
    21     6     1   ar
    22    15    13    1
    23     9     4    1
    24    20    22    1
    25    21    23    1
