@<TRIPOS>MOLECULE
*****
 41 44 0 0 0
SMALL
GASTEIGER

@<TRIPOS>ATOM
      1 C         140.2013  139.8993  168.5200 C.2     1  UNL1        0.4052
      2 O         139.2089  139.9406  169.6440 O.2     1  UNL1       -0.2262
      3 N         139.7662  139.4679  167.1508 N.am    1  UNL1       -0.2460
      4 C         138.3801  139.0514  166.7566 C.3     1  UNL1        0.0968
      5 C         138.3980  138.7033  165.2976 C.3     1  UNL1        0.0234
      6 C         138.7197  138.4304  163.8582 C.3     1  UNL1        0.0231
      7 C         139.7951  138.9047  164.7902 C.3     1  UNL1        0.0234
      8 C         140.6406  139.3773  165.9355 C.3     1  UNL1        0.0968
      9 O         141.6287  140.2894  168.7651 O.3     1  UNL1       -0.4295
     10 C         142.0812  141.6922  168.4869 C.3     1  UNL1        0.2367
     11 C         142.4603  143.0900  164.7920 C.ar    1  UNL1        0.0685
     12 C         142.7923  142.4409  166.1028 C.ar    1  UNL1        0.0096
     13 C         141.7491  142.3414  167.1760 C.ar    1  UNL1        0.0222
     14 C         140.3738  142.8910  166.9384 C.ar    1  UNL1        0.0058
     15 C         140.0418  143.5401  165.6276 C.ar    1  UNL1        0.0763
     16 C         141.0850  143.6396  164.5543 C.ar    1  UNL1        0.0167
     17 N         144.5467  143.2891  162.6456 N.1     1  UNL1       -0.1908
     18 C         143.5035  143.1896  163.7188 C.1     1  UNL1        0.1004
     19 C         138.6664  144.0897  165.3899 C.2     1  UNL1        0.3466
     20 O         138.3217  145.4742  165.8528 O.2     1  UNL1       -0.2447
     21 O         137.6359  143.2549  164.6892 O.3     1  UNL1       -0.3701
     22 C         137.6895  143.0918  163.1991 C.3     1  UNL1        0.5774
     23 F         137.7431  142.9288  161.7089 F       1  UNL1       -0.1328
     24 F         137.7754  141.6035  163.3650 F       1  UNL1       -0.1328
     25 F         137.6035  144.5801  163.0331 F       1  UNL1       -0.1328
     26 C         138.2846  137.9990  162.4891 C.3     1  UNL1        0.0910
     27 N         139.3063  137.7687  161.4153 N.am    1  UNL1       -0.2890
     28 C         140.0157  138.9344  160.7926 C.2     1  UNL1        0.3008
     29 O         139.7035  140.3305  161.2437 O.2     1  UNL1       -0.2528
     30 N         141.0375  138.7041  159.7187 N.am    1  UNL1       -0.2889
     31 H         139.5112  136.8524  161.1192 H       1  UNL1        0.1510
     32 H         141.2424  137.7878  159.4226 H       1  UNL1        0.1510
     33 C         141.7469  139.8698  159.0960 C.3     1  UNL1        0.0913
     34 C         142.7572  140.6440  159.8897 C.3     1  UNL1        0.0276
     35 C         143.9658  139.9506  160.4450 C.3     1  UNL1        0.0486
     36 C         144.0716  139.6929  161.9189 C.ar    1  UNL1        0.0741
     37 C         143.1389  138.8484  162.7355 C.ar    1  UNL1        0.1378
     38 N         143.6195  138.8680  164.1563 N.ar    1  UNL1       -0.1277
     39 N         144.8493  139.7247  164.2178 N.ar    1  UNL1       -0.0675
     40 N         145.1287  140.2345  162.8351 N.ar    1  UNL1       -0.2605
     41 H         145.8749  140.8215  162.5746 H       1  UNL1        0.1903
@<TRIPOS>BOND
     1    17    18    3
     2    18    11    1
     3    11    12   ar
     4    12    13   ar
     5    13    10    1
     6    10     9    1
     7     9     1    1
     8     1     2    2
     9     1     3   am
    10     3     4    1
    11     5     4    1
    12     5     6    1
    13     6    26    1
    14    26    27    1
    15    27    28   am
    16    28    29    2
    17    28    30   am
    18    30    33    1
    19    33    34    1
    20    34    35    1
    21    35    36    1
    22    36    37   ar
    23    37    38   ar
    24    38    39   ar
    25    39    40   ar
    26     6     7    1
    27     7     8    1
    28    13    14   ar
    29    14    15   ar
    30    15    19    1
    31    19    20    2
    32    19    21    1
    33    21    22    1
    34    22    23    1
    35    22    24    1
    36    22    25    1
    37    15    16   ar
    38    16    11   ar
    39     8     3    1
    40     7     5    1
    41    40    36   ar
    42    27    31    1
    43    30    32    1
    44    40    41    1
@<TRIPOS>MOLECULE
*****
 41 44 0 0 0
SMALL
GASTEIGER

@<TRIPOS>ATOM
      1 C         140.2951  139.9069  167.8080 C.2     1  UNL1        0.4052
      2 O         139.3782  139.8371  168.9931 O.2     1  UNL1       -0.2262
      3 N         139.8047  139.4858  166.4544 N.am    1  UNL1       -0.2460
      4 C         138.4309  138.9763  166.1336 C.3     1  UNL1        0.0968
      5 C         138.3791  138.6758  164.6649 C.3     1  UNL1        0.0234
      6 C         138.6254  138.4729  163.1993 C.3     1  UNL1        0.0231
      7 C         139.7210  138.9996  164.0780 C.3     1  UNL1        0.0234
      8 C         140.6021  139.5002  165.1840 C.3     1  UNL1        0.0968
      9 O         141.7024  140.3979  167.9765 O.3     1  UNL1       -0.4295
     10 C         142.0020  141.8644  167.8781 C.3     1  UNL1        0.2367
     11 C         142.2449  143.5230  164.2808 C.ar    1  UNL1        0.0685
     12 C         142.6172  142.7629  165.5192 C.ar    1  UNL1        0.0096
     13 C         141.6296  142.6245  166.6397 C.ar    1  UNL1        0.0222
     14 C         140.2696  143.2462  166.5218 C.ar    1  UNL1        0.0058
     15 C         139.8972  144.0063  165.2834 C.ar    1  UNL1        0.0763
     16 C         140.8849  144.1447  164.1629 C.ar    1  UNL1        0.0167
     17 N         144.2201  143.7998  162.0399 N.1     1  UNL1       -0.1908
     18 C         143.2325  143.6614  163.1604 C.1     1  UNL1        0.1004
     19 C         138.5372  144.6280  165.1654 C.2     1  UNL1        0.3466
     20 O         138.0291  145.5317  166.2494 O.2     1  UNL1       -0.2447
     21 O         137.6853  144.3459  163.9635 O.3     1  UNL1       -0.3701
     22 C         137.5528  142.9425  163.4508 C.3     1  UNL1        0.5774
     23 F         137.4203  141.5390  162.9381 F       1  UNL1       -0.1328
     24 F         137.7780  143.4326  162.0511 F       1  UNL1       -0.1328
     25 F         137.3276  142.4524  164.8504 F       1  UNL1       -0.1328
     26 C         138.1350  138.0518  161.8457 C.3     1  UNL1        0.0910
     27 N         139.1105  137.8467  160.7249 N.am    1  UNL1       -0.2890
     28 C         139.3631  138.9489  159.7393 C.2     1  UNL1        0.3008
     29 O         138.6400  140.2561  159.8745 O.2     1  UNL1       -0.2528
     30 N         140.3387  138.7438  158.6185 N.am    1  UNL1       -0.2889
     31 H         139.5851  136.9887  160.6362 H       1  UNL1        0.1510
     32 H         140.8132  137.8858  158.5298 H       1  UNL1        0.1510
     33 C         140.5912  139.8459  157.6329 C.3     1  UNL1        0.0913
     34 C         141.6749  140.8501  157.8920 C.3     1  UNL1        0.0276
     35 C         141.9273  141.3378  159.2879 C.3     1  UNL1        0.0486
     36 C         141.7134  142.7831  159.6276 C.ar    1  UNL1        0.0741
     37 C         140.6098  143.3343  160.4809 C.ar    1  UNL1        0.1378
     38 N         140.7799  144.8229  160.5543 N.ar    1  UNL1       -0.1277
     39 N         141.9888  145.1916  159.7463 N.ar    1  UNL1       -0.0675
     40 N         142.5657  143.9310  159.1735 N.ar    1  UNL1       -0.2605
     41 H         143.3636  143.8680  158.6003 H       1  UNL1        0.1903
@<TRIPOS>BOND
     1    17    18    3
     2    18    11    1
     3    11    12   ar
     4    12    13   ar
     5    13    10    1
     6    10     9    1
     7     9     1    1
     8     1     2    2
     9     1     3   am
    10     3     4    1
    11     5     4    1
    12     5     6    1
    13     6    26    1
    14    26    27    1
    15    27    28   am
    16    28    29    2
    17    28    30   am
    18    30    33    1
    19    33    34    1
    20    34    35    1
    21    35    36    1
    22    36    37   ar
    23    37    38   ar
    24    38    39   ar
    25    39    40   ar
    26     6     7    1
    27     7     8    1
    28    13    14   ar
    29    14    15   ar
    30    15    19    1
    31    19    20    2
    32    19    21    1
    33    21    22    1
    34    22    23    1
    35    22    24    1
    36    22    25    1
    37    15    16   ar
    38    16    11   ar
    39     8     3    1
    40     7     5    1
    41    40    36   ar
    42    27    31    1
    43    30    32    1
    44    40    41    1
@<TRIPOS>MOLECULE
*****
 41 44 0 0 0
SMALL
GASTEIGER

@<TRIPOS>ATOM
      1 C         138.1259  143.2417  161.7108 C.2     1  UNL1        0.4052
      2 O         138.1219  144.6847  162.1205 O.2     1  UNL1       -0.2262
      3 N         138.1403  142.1655  162.7557 N.am    1  UNL1       -0.2460
      4 C         138.1518  142.3783  164.2404 C.3     1  UNL1        0.0968
      5 C         138.1643  141.0319  164.9016 C.3     1  UNL1        0.0234
      6 C         138.1750  139.5775  165.2683 C.3     1  UNL1        0.0231
      7 C         138.1607  139.9870  163.8254 C.3     1  UNL1        0.0234
      8 C         138.1459  140.6876  162.4992 C.3     1  UNL1        0.0968
      9 O         138.1156  142.8749  160.2564 O.3     1  UNL1       -0.4295
     10 C         139.4084  142.7396  159.5078 C.3     1  UNL1        0.2367
     11 C         142.6063  143.1252  161.8261 C.ar    1  UNL1        0.0685
     12 C         141.3430  143.4548  161.0876 C.ar    1  UNL1        0.0096
     13 C         140.6717  142.4100  160.2463 C.ar    1  UNL1        0.0222
     14 C         141.2637  141.0356  160.1435 C.ar    1  UNL1        0.0058
     15 C         142.5270  140.7060  160.8820 C.ar    1  UNL1        0.0763
     16 C         143.1983  141.7508  161.7233 C.ar    1  UNL1        0.0167
     17 N         143.9490  145.2148  163.5086 N.1     1  UNL1       -0.1908
     18 C         143.2777  144.1700  162.6674 C.1     1  UNL1        0.1004
     19 C         143.1191  139.3316  160.7792 C.2     1  UNL1        0.3466
     20 O         144.1548  139.0373  159.7349 O.2     1  UNL1       -0.2447
     21 O         142.6754  138.2515  161.7208 O.3     1  UNL1       -0.3701
     22 C         141.9854  138.6113  163.0031 C.3     1  UNL1        0.5774
     23 F         141.2953  138.9711  164.2855 F       1  UNL1       -0.1328
     24 F         143.3132  138.9092  163.6340 F       1  UNL1       -0.1328
     25 F         140.6575  138.3134  162.3722 F       1  UNL1       -0.1328
     26 C         138.1894  138.5014  166.3132 C.3     1  UNL1        0.0910
     27 N         138.0336  138.8599  167.7613 N.am    1  UNL1       -0.2890
     28 C         139.0660  139.7119  168.4383 C.2     1  UNL1        0.3008
     29 O         140.2542  140.2053  167.6671 O.2     1  UNL1       -0.2528
     30 N         138.9102  140.0704  169.8865 N.am    1  UNL1       -0.2889
     31 H         137.2538  138.5360  168.2675 H       1  UNL1        0.1510
     32 H         138.1304  139.7465  170.3927 H       1  UNL1        0.1510
     33 C         139.9426  140.9224  170.5635 C.3     1  UNL1        0.0913
     34 C         139.7655  142.4107  170.6222 C.3     1  UNL1        0.0276
     35 C         140.6428  143.3035  169.7956 C.3     1  UNL1        0.0486
     36 C         142.1325  143.2556  169.9639 C.ar    1  UNL1        0.0741
     37 C         143.0842  142.4199  169.1602 C.ar    1  UNL1        0.1378
     38 N         144.4721  142.6828  169.6651 N.ar    1  UNL1       -0.1277
     39 N         144.3781  143.6810  170.7808 N.ar    1  UNL1       -0.0675
     40 N         142.9323  144.0350  170.9655 N.ar    1  UNL1       -0.2605
     41 H         142.5715  144.6678  171.6278 H       1  UNL1        0.1903
@<TRIPOS>BOND
     1    17    18    3
     2    18    11    1
     3    11    12   ar
     4    12    13   ar
     5    13    10    1
     6    10     9    1
     7     9     1    1
     8     1     2    2
     9     1     3   am
    10     3     4    1
    11     5     4    1
    12     5     6    1
    13     6    26    1
    14    26    27    1
    15    27    28   am
    16    28    29    2
    17    28    30   am
    18    30    33    1
    19    33    34    1
    20    34    35    1
    21    35    36    1
    22    36    37   ar
    23    37    38   ar
    24    38    39   ar
    25    39    40   ar
    26     6     7    1
    27     7     8    1
    28    13    14   ar
    29    14    15   ar
    30    15    19    1
    31    19    20    2
    32    19    21    1
    33    21    22    1
    34    22    23    1
    35    22    24    1
    36    22    25    1
    37    15    16   ar
    38    16    11   ar
    39     8     3    1
    40     7     5    1
    41    40    36   ar
    42    27    31    1
    43    30    32    1
    44    40    41    1
@<TRIPOS>MOLECULE
*****
 41 44 0 0 0
SMALL
GASTEIGER

@<TRIPOS>ATOM
      1 C         140.1797  137.7883  164.5785 C.2     1  UNL1        0.4052
      2 O         141.5647  137.6764  165.1437 O.2     1  UNL1       -0.2262
      3 N         139.9856  138.1405  163.1334 N.am    1  UNL1       -0.2460
      4 C         141.0746  138.4074  162.1370 C.3     1  UNL1        0.0968
      5 C         140.4304  138.7194  160.8188 C.3     1  UNL1        0.0234
      6 C         139.5188  138.9874  159.6582 C.3     1  UNL1        0.0231
      7 C         138.9433  138.6454  161.0005 C.3     1  UNL1        0.0234
      8 C         138.6684  138.2875  162.4310 C.3     1  UNL1        0.0968
      9 O         138.9890  137.5480  165.4584 O.3     1  UNL1       -0.4295
     10 C         138.2420  138.7099  166.0434 C.3     1  UNL1        0.2367
     11 C         140.1996  141.0629  168.5696 C.ar    1  UNL1        0.0685
     12 C         139.4470  139.8868  168.0215 C.ar    1  UNL1        0.0096
     13 C         138.9947  139.8861  166.5914 C.ar    1  UNL1        0.0222
     14 C         139.2949  141.0615  165.7092 C.ar    1  UNL1        0.0058
     15 C         140.0474  142.2376  166.2572 C.ar    1  UNL1        0.0763
     16 C         140.4998  142.2383  167.6874 C.ar    1  UNL1        0.0167
     17 N         141.1043  141.0643  171.4299 N.1     1  UNL1       -0.1908
     18 C         140.6520  141.0636  169.9997 C.1     1  UNL1        0.1004
     19 C         140.3477  143.4131  165.3751 C.2     1  UNL1        0.3466
     20 O         141.6458  143.4767  164.6263 O.2     1  UNL1       -0.2447
     21 O         139.3497  144.5250  165.2418 O.3     1  UNL1       -0.3701
     22 C         138.4148  144.5572  164.0693 C.3     1  UNL1        0.5774
     23 F         137.4798  144.5893  162.8967 F       1  UNL1       -0.1328
     24 F         139.4024  145.3876  163.3046 F       1  UNL1       -0.1328
     25 F         137.4272  143.7267  164.8340 F       1  UNL1       -0.1328
     26 C         139.3247  139.3395  158.2131 C.3     1  UNL1        0.0910
     27 N         140.0257  140.5309  157.6307 N.am    1  UNL1       -0.2890
     28 C         139.6353  141.9144  158.0591 C.2     1  UNL1        0.3008
     29 O         138.5438  142.1065  159.0698 O.2     1  UNL1       -0.2528
     30 N         140.3364  143.1057  157.4767 N.am    1  UNL1       -0.2889
     31 H         140.7421  140.4048  156.9673 H       1  UNL1        0.1510
     32 H         141.0529  142.9796  156.8133 H       1  UNL1        0.1510
     33 C         139.9460  144.4892  157.9051 C.3     1  UNL1        0.0913
     34 C         140.7230  145.1886  158.9808 C.3     1  UNL1        0.0276
     35 C         140.7791  144.6087  160.3631 C.3     1  UNL1        0.0486
     36 C         142.1046  144.3001  160.9937 C.ar    1  UNL1        0.0741
     37 C         143.0283  143.1846  160.6033 C.ar    1  UNL1        0.1378
     38 N         144.2338  143.2478  161.4938 N.ar    1  UNL1       -0.1277
     39 N         144.0550  144.4024  162.4346 N.ar    1  UNL1       -0.0675
     40 N         142.7392  145.0527  162.1255 N.ar    1  UNL1       -0.2605
     41 H         142.3588  145.8361  162.5848 H       1  UNL1        0.1903
@<TRIPOS>BOND
     1    17    18    3
     2    18    11    1
     3    11    12   ar
     4    12    13   ar
     5    13    10    1
     6    10     9    1
     7     9     1    1
     8     1     2    2
     9     1     3   am
    10     3     4    1
    11     5     4    1
    12     5     6    1
    13     6    26    1
    14    26    27    1
    15    27    28   am
    16    28    29    2
    17    28    30   am
    18    30    33    1
    19    33    34    1
    20    34    35    1
    21    35    36    1
    22    36    37   ar
    23    37    38   ar
    24    38    39   ar
    25    39    40   ar
    26     6     7    1
    27     7     8    1
    28    13    14   ar
    29    14    15   ar
    30    15    19    1
    31    19    20    2
    32    19    21    1
    33    21    22    1
    34    22    23    1
    35    22    24    1
    36    22    25    1
    37    15    16   ar
    38    16    11   ar
    39     8     3    1
    40     7     5    1
    41    40    36   ar
    42    27    31    1
    43    30    32    1
    44    40    41    1
@<TRIPOS>MOLECULE
*****
 41 44 0 0 0
SMALL
GASTEIGER

@<TRIPOS>ATOM
      1 C         139.1133  140.1817  159.0994 C.2     1  UNL1        0.4052
      2 O         137.8805  140.2903  158.2517 O.2     1  UNL1       -0.2262
      3 N         138.9981  139.7976  160.5449 N.am    1  UNL1       -0.2460
      4 C         137.7251  139.4939  161.2777 C.3     1  UNL1        0.0968
      5 C         138.0759  139.1584  162.6970 C.3     1  UNL1        0.0234
      6 C         138.7212  138.8740  164.0209 C.3     1  UNL1        0.0231
      7 C         139.5659  139.2548  162.8413 C.3     1  UNL1        0.0234
      8 C         140.1358  139.6499  161.5112 C.3     1  UNL1        0.0968
      9 O         140.4612  140.4573  158.5017 O.3     1  UNL1       -0.4295
     10 C         141.0170  141.8504  158.5152 C.3     1  UNL1        0.2367
     11 C         142.7614  142.9030  161.9209 C.ar    1  UNL1        0.0685
     12 C         142.5034  142.2111  160.6153 C.ar    1  UNL1        0.0096
     13 C         141.2750  142.5424  159.8209 C.ar    1  UNL1        0.0222
     14 C         140.3046  143.5656  160.3320 C.ar    1  UNL1        0.0058
     15 C         140.5626  144.2575  161.6376 C.ar    1  UNL1        0.0763
     16 C         141.7910  143.9262  162.4321 C.ar    1  UNL1        0.0167
     17 N         145.2183  142.2404  163.5099 N.1     1  UNL1       -0.1908
     18 C         143.9899  142.5717  162.7154 C.1     1  UNL1        0.1004
     19 C         139.5921  145.2808  162.1488 C.2     1  UNL1        0.3466
     20 O         139.1718  146.4209  161.2694 O.2     1  UNL1       -0.2447
     21 O         139.0421  145.1639  163.5394 O.3     1  UNL1       -0.3701
     22 C         138.3637  143.8985  163.9737 C.3     1  UNL1        0.5774
     23 F         137.6853  142.6331  164.4080 F       1  UNL1       -0.1328
     24 F         137.3491  144.0678  162.8820 F       1  UNL1       -0.1328
     25 F         139.3783  143.7292  165.0654 F       1  UNL1       -0.1328
     26 C         138.6060  138.4899  165.4663 C.3     1  UNL1        0.0910
     27 N         139.1281  139.4090  166.5305 N.am    1  UNL1       -0.2890
     28 C         140.6069  139.5599  166.7317 C.2     1  UNL1        0.3008
     29 O         141.5635  138.7916  165.8688 O.2     1  UNL1       -0.2528
     30 N         141.1290  140.4791  167.7960 N.am    1  UNL1       -0.2889
     31 H         138.5003  139.9133  167.0968 H       1  UNL1        0.1510
     32 H         140.5012  140.9833  168.3623 H       1  UNL1        0.1510
     33 C         142.6078  140.6300  167.9973 C.3     1  UNL1        0.0913
     34 C         143.2094  141.9963  168.1426 C.3     1  UNL1        0.0276
     35 C         143.2012  142.6814  169.4770 C.3     1  UNL1        0.0486
     36 C         141.9643  142.6566  170.3251 C.ar    1  UNL1        0.0741
     37 C         140.6649  143.3364  170.0094 C.ar    1  UNL1        0.1378
     38 N         139.7071  143.0477  171.1272 N.ar    1  UNL1       -0.1277
     39 N         140.4146  142.1894  172.1337 N.ar    1  UNL1       -0.0675
     40 N         141.8095  141.9478  171.6381 N.ar    1  UNL1       -0.2605
     41 H         142.5019  141.4171  172.0943 H       1  UNL1        0.1903
@<TRIPOS>BOND
     1    17    18    3
     2    18    11    1
     3    11    12   ar
     4    12    13   ar
     5    13    10    1
     6    10     9    1
     7     9     1    1
     8     1     2    2
     9     1     3   am
    10     3     4    1
    11     5     4    1
    12     5     6    1
    13     6    26    1
    14    26    27    1
    15    27    28   am
    16    28    29    2
    17    28    30   am
    18    30    33    1
    19    33    34    1
    20    34    35    1
    21    35    36    1
    22    36    37   ar
    23    37    38   ar
    24    38    39   ar
    25    39    40   ar
    26     6     7    1
    27     7     8    1
    28    13    14   ar
    29    14    15   ar
    30    15    19    1
    31    19    20    2
    32    19    21    1
    33    21    22    1
    34    22    23    1
    35    22    24    1
    36    22    25    1
    37    15    16   ar
    38    16    11   ar
    39     8     3    1
    40     7     5    1
    41    40    36   ar
    42    27    31    1
    43    30    32    1
    44    40    41    1
@<TRIPOS>MOLECULE
*****
 41 44 0 0 0
SMALL
GASTEIGER

@<TRIPOS>ATOM
      1 C         140.1281  137.8827  164.6731 C.2     1  UNL1        0.4052
      2 O         141.4645  138.0099  165.3424 O.2     1  UNL1       -0.2262
      3 N         140.0097  138.0811  163.1910 N.am    1  UNL1       -0.2460
      4 C         141.1331  138.4092  162.2528 C.3     1  UNL1        0.0968
      5 C         140.5647  138.5172  160.8688 C.3     1  UNL1        0.0234
      6 C         139.7248  138.5583  159.6268 C.3     1  UNL1        0.0231
      7 C         139.0900  138.2557  160.9517 C.3     1  UNL1        0.0234
      8 C         138.7470  137.9862  162.3869 C.3     1  UNL1        0.0968
      9 O         138.9102  137.5570  165.4859 O.3     1  UNL1       -0.4295
     10 C         138.1603  138.6519  166.1851 C.3     1  UNL1        0.2367
     11 C         140.0319  141.0408  168.7425 C.ar    1  UNL1        0.0685
     12 C         139.2912  139.8603  168.1879 C.ar    1  UNL1        0.0096
     13 C         138.9011  139.8325  166.7397 C.ar    1  UNL1        0.0222
     14 C         139.2516  140.9853  165.8463 C.ar    1  UNL1        0.0058
     15 C         139.9923  142.1658  166.4010 C.ar    1  UNL1        0.0763
     16 C         140.3824  142.1936  167.8491 C.ar    1  UNL1        0.0167
     17 N         140.8121  141.0964  171.6388 N.1     1  UNL1       -0.1908
     18 C         140.4220  141.0686  170.1907 C.1     1  UNL1        0.1004
     19 C         140.3429  143.3186  165.5076 C.2     1  UNL1        0.3466
     20 O         141.6438  143.3202  164.7609 O.2     1  UNL1       -0.2447
     21 O         139.3925  144.4698  165.3608 O.3     1  UNL1       -0.3701
     22 C         138.4812  144.5431  164.1717 C.3     1  UNL1        0.5774
     23 F         137.5699  144.6165  162.9825 F       1  UNL1       -0.1328
     24 F         137.4524  143.7397  164.9106 F       1  UNL1       -0.1328
     25 F         139.5100  145.3465  163.4328 F       1  UNL1       -0.1328
     26 C         139.6064  138.7567  158.1447 C.3     1  UNL1        0.0910
     27 N         140.6415  138.1791  157.2256 N.am    1  UNL1       -0.2890
     28 C         140.2422  137.1821  156.1784 C.2     1  UNL1        0.3008
     29 O         138.8077  136.7627  156.0503 O.2     1  UNL1       -0.2528
     30 N         141.2774  136.6045  155.2592 N.am    1  UNL1       -0.2889
     31 H         141.5830  138.4543  157.3096 H       1  UNL1        0.1510
     32 H         142.2189  136.8798  155.3433 H       1  UNL1        0.1510
     33 C         140.8781  135.6075  154.2121 C.3     1  UNL1        0.0913
     34 C         141.5329  134.2586  154.1723 C.3     1  UNL1        0.0276
     35 C         141.3605  133.3071  155.3189 C.3     1  UNL1        0.0486
     36 C         142.5031  133.0454  156.2547 C.ar    1  UNL1        0.0741
     37 C         143.1999  131.7314  156.4497 C.ar    1  UNL1        0.1378
     38 N         144.2771  131.9257  157.4755 N.ar    1  UNL1       -0.1277
     39 N         144.2460  133.3597  157.9144 N.ar    1  UNL1       -0.0675
     40 N         143.1496  134.0517  157.1600 N.ar    1  UNL1       -0.2605
     41 H         142.8985  134.9999  157.2442 H       1  UNL1        0.1903
@<TRIPOS>BOND
     1    17    18    3
     2    18    11    1
     3    11    12   ar
     4    12    13   ar
     5    13    10    1
     6    10     9    1
     7     9     1    1
     8     1     2    2
     9     1     3   am
    10     3     4    1
    11     5     4    1
    12     5     6    1
    13     6    26    1
    14    26    27    1
    15    27    28   am
    16    28    29    2
    17    28    30   am
    18    30    33    1
    19    33    34    1
    20    34    35    1
    21    35    36    1
    22    36    37   ar
    23    37    38   ar
    24    38    39   ar
    25    39    40   ar
    26     6     7    1
    27     7     8    1
    28    13    14   ar
    29    14    15   ar
    30    15    19    1
    31    19    20    2
    32    19    21    1
    33    21    22    1
    34    22    23    1
    35    22    24    1
    36    22    25    1
    37    15    16   ar
    38    16    11   ar
    39     8     3    1
    40     7     5    1
    41    40    36   ar
    42    27    31    1
    43    30    32    1
    44    40    41    1
@<TRIPOS>MOLECULE
*****
 41 44 0 0 0
SMALL
GASTEIGER

@<TRIPOS>ATOM
      1 C         143.4881  140.1915  159.2938 C.2     1  UNL1        0.4052
      2 O         143.7443  139.5081  157.9833 O.2     1  UNL1       -0.2262
      3 N         142.4516  139.6489  160.2325 N.am    1  UNL1       -0.2460
      4 C         141.5975  138.4382  159.9986 C.3     1  UNL1        0.0968
      5 C         140.7052  138.2629  161.1915 C.3     1  UNL1        0.0234
      6 C         139.9588  138.3442  162.4901 C.3     1  UNL1        0.0231
      7 C         141.0078  139.3652  162.1627 C.3     1  UNL1        0.0234
      8 C         142.0871  140.2218  161.5700 C.3     1  UNL1        0.0968
      9 O         144.2684  141.4174  159.6655 O.3     1  UNL1       -0.4295
     10 C         143.6320  142.7717  159.5616 C.3     1  UNL1        0.2367
     11 C         143.2880  144.0830  163.2915 C.ar    1  UNL1        0.0685
     12 C         143.8495  143.4224  162.0675 C.ar    1  UNL1        0.0096
     13 C         143.0705  143.4323  160.7857 C.ar    1  UNL1        0.0222
     14 C         141.7300  144.1029  160.7279 C.ar    1  UNL1        0.0058
     15 C         141.1685  144.7635  161.9519 C.ar    1  UNL1        0.0763
     16 C         141.9475  144.7536  163.2337 C.ar    1  UNL1        0.0167
     17 N         144.8460  144.0632  165.8551 N.1     1  UNL1       -0.1908
     18 C         144.0670  144.0731  164.5733 C.1     1  UNL1        0.1004
     19 C         139.8279  145.4341  161.8942 C.2     1  UNL1        0.3466
     20 O         139.7404  146.9233  161.7377 O.2     1  UNL1       -0.2447
     21 O         138.5749  144.6154  161.9929 O.3     1  UNL1       -0.3701
     22 C         138.1109  144.1122  163.3276 C.3     1  UNL1        0.5774
     23 F         137.6469  143.6091  164.6624 F       1  UNL1       -0.1328
     24 F         137.3995  142.9773  162.6525 F       1  UNL1       -0.1328
     25 F         138.8223  145.2472  164.0027 F       1  UNL1       -0.1328
     26 C         138.9223  137.8016  163.4288 C.3     1  UNL1        0.0910
     27 N         138.5233  138.5888  164.6416 N.am    1  UNL1       -0.2890
     28 C         139.5232  138.8497  165.7289 C.2     1  UNL1        0.3008
     29 O         140.9222  138.3232  165.6033 O.2     1  UNL1       -0.2528
     30 N         139.1242  139.6369  166.9418 N.am    1  UNL1       -0.2889
     31 H         137.6051  138.9344  164.7241 H       1  UNL1        0.1510
     32 H         138.2060  139.9824  167.0242 H       1  UNL1        0.1510
     33 C         140.1241  139.8977  168.0290 C.3     1  UNL1        0.0913
     34 C         139.8113  140.8843  169.1147 C.3     1  UNL1        0.0276
     35 C         140.7276  141.0162  170.2950 C.3     1  UNL1        0.0486
     36 C         141.9658  141.8566  170.1930 C.ar    1  UNL1        0.0741
     37 C         142.9585  141.8313  169.0687 C.ar    1  UNL1        0.1378
     38 N         144.0350  142.8290  169.3783 N.ar    1  UNL1       -0.1277
     39 N         143.7076  143.4710  170.6939 N.ar    1  UNL1       -0.0675
     40 N         142.4288  142.8701  171.1974 N.ar    1  UNL1       -0.2605
     41 H         141.9733  143.1004  172.0392 H       1  UNL1        0.1903
@<TRIPOS>BOND
     1    17    18    3
     2    18    11    1
     3    11    12   ar
     4    12    13   ar
     5    13    10    1
     6    10     9    1
     7     9     1    1
     8     1     2    2
     9     1     3   am
    10     3     4    1
    11     5     4    1
    12     5     6    1
    13     6    26    1
    14    26    27    1
    15    27    28   am
    16    28    29    2
    17    28    30   am
    18    30    33    1
    19    33    34    1
    20    34    35    1
    21    35    36    1
    22    36    37   ar
    23    37    38   ar
    24    38    39   ar
    25    39    40   ar
    26     6     7    1
    27     7     8    1
    28    13    14   ar
    29    14    15   ar
    30    15    19    1
    31    19    20    2
    32    19    21    1
    33    21    22    1
    34    22    23    1
    35    22    24    1
    36    22    25    1
    37    15    16   ar
    38    16    11   ar
    39     8     3    1
    40     7     5    1
    41    40    36   ar
    42    27    31    1
    43    30    32    1
    44    40    41    1
@<TRIPOS>MOLECULE
*****
 41 44 0 0 0
SMALL
GASTEIGER

@<TRIPOS>ATOM
      1 C         138.6431  144.0301  164.3797 C.2     1  UNL1        0.4052
      2 O         138.6694  145.0124  165.5131 O.2     1  UNL1       -0.2262
      3 N         139.2572  144.3914  163.0597 N.am    1  UNL1       -0.2460
      4 C         139.9296  145.6901  162.7261 C.3     1  UNL1        0.0968
      5 C         140.3947  145.6188  161.3018 C.3     1  UNL1        0.0234
      6 C         140.7340  145.2603  159.8854 C.3     1  UNL1        0.0231
      7 C         140.0098  144.2761  160.7552 C.3     1  UNL1        0.0234
      8 C         139.3068  143.5175  161.8416 C.3     1  UNL1        0.0968
      9 O         138.0027  142.6866  164.5663 O.3     1  UNL1       -0.4295
     10 C         138.8155  141.5322  165.0729 C.3     1  UNL1        0.2367
     11 C         141.6891  142.3514  167.6848 C.ar    1  UNL1        0.0685
     12 C         140.3263  142.1122  167.1055 C.ar    1  UNL1        0.0096
     13 C         140.1784  141.7715  165.6522 C.ar    1  UNL1        0.0222
     14 C         141.3932  141.6700  164.7782 C.ar    1  UNL1        0.0058
     15 C         142.7559  141.9092  165.3575 C.ar    1  UNL1        0.0763
     16 C         142.9039  142.2499  166.8108 C.ar    1  UNL1        0.0167
     17 N         141.9850  143.0329  170.5913 N.1     1  UNL1       -0.1908
     18 C         141.8370  142.6922  169.1380 C.1     1  UNL1        0.1004
     19 C         143.9708  141.8077  164.4835 C.2     1  UNL1        0.3466
     20 O         144.7876  140.5496  164.4777 O.2     1  UNL1       -0.2447
     21 O         144.3689  142.9644  163.6154 O.3     1  UNL1       -0.3701
     22 C         143.7793  144.3221  163.8581 C.3     1  UNL1        0.5774
     23 F         143.1897  145.6799  164.1007 F       1  UNL1       -0.1328
     24 F         144.6167  144.4647  165.0943 F       1  UNL1       -0.1328
     25 F         142.9419  144.1794  162.6218 F       1  UNL1       -0.1328
     26 C         141.3481  145.6216  158.5654 C.3     1  UNL1        0.0910
     27 N         142.6551  145.0113  158.1541 N.am    1  UNL1       -0.2890
     28 C         142.6955  143.6048  157.6343 C.2     1  UNL1        0.3008
     29 O         141.4289  142.8087  157.5257 O.2     1  UNL1       -0.2528
     30 N         144.0026  142.9945  157.2230 N.am    1  UNL1       -0.2889
     31 H         143.4865  145.5338  158.2253 H       1  UNL1        0.1510
     32 H         144.8339  143.5170  157.2942 H       1  UNL1        0.1510
     33 C         144.0429  141.5880  156.7031 C.3     1  UNL1        0.0913
     34 C         143.9552  140.4333  157.6564 C.3     1  UNL1        0.0276
     35 C         144.1921  140.6506  159.1216 C.3     1  UNL1        0.0486
     36 C         143.8291  139.5795  160.1070 C.ar    1  UNL1        0.0741
     37 C         142.8785  138.4446  159.8654 C.ar    1  UNL1        0.1378
     38 N         142.8149  137.6189  161.1162 N.ar    1  UNL1       -0.1277
     39 N         143.7263  138.2436  162.1308 N.ar    1  UNL1       -0.0675
     40 N         144.3530  139.4553  161.5071 N.ar    1  UNL1       -0.2605
     41 H         144.9955  140.0624  161.9405 H       1  UNL1        0.1903
@<TRIPOS>BOND
     1    17    18    3
     2    18    11    1
     3    11    12   ar
     4    12    13   ar
     5    13    10    1
     6    10     9    1
     7     9     1    1
     8     1     2    2
     9     1     3   am
    10     3     4    1
    11     5     4    1
    12     5     6    1
    13     6    26    1
    14    26    27    1
    15    27    28   am
    16    28    29    2
    17    28    30   am
    18    30    33    1
    19    33    34    1
    20    34    35    1
    21    35    36    1
    22    36    37   ar
    23    37    38   ar
    24    38    39   ar
    25    39    40   ar
    26     6     7    1
    27     7     8    1
    28    13    14   ar
    29    14    15   ar
    30    15    19    1
    31    19    20    2
    32    19    21    1
    33    21    22    1
    34    22    23    1
    35    22    24    1
    36    22    25    1
    37    15    16   ar
    38    16    11   ar
    39     8     3    1
    40     7     5    1
    41    40    36   ar
    42    27    31    1
    43    30    32    1
    44    40    41    1
@<TRIPOS>MOLECULE
*****
 41 44 0 0 0
SMALL
GASTEIGER

@<TRIPOS>ATOM
      1 C         143.6179  142.3057  166.0232 C.2     1  UNL1        0.4052
      2 O         144.2014  143.6680  165.7916 O.2     1  UNL1       -0.2262
      3 N         143.7275  141.2523  164.9610 N.am    1  UNL1       -0.2460
      4 C         144.3884  141.4137  163.6241 C.3     1  UNL1        0.0968
      5 C         144.2649  140.1137  162.8860 C.3     1  UNL1        0.0234
      6 C         143.9913  138.7190  162.4064 C.3     1  UNL1        0.0231
      7 C         143.5278  139.1488  163.7667 C.3     1  UNL1        0.0234
      8 C         143.1957  139.8525  165.0491 C.3     1  UNL1        0.0968
      9 O         142.9246  141.9968  167.3170 O.3     1  UNL1       -0.4295
     10 C         141.4971  142.4101  167.5204 C.3     1  UNL1        0.2367
     11 C         138.8083  142.1396  164.6140 C.ar    1  UNL1        0.0685
     12 C         139.8826  142.6903  165.5042 C.ar    1  UNL1        0.0096
     13 C         140.4228  141.8594  166.6301 C.ar    1  UNL1        0.0222
     14 C         139.8886  140.4777  166.8658 C.ar    1  UNL1        0.0058
     15 C         138.8143  139.9270  165.9756 C.ar    1  UNL1        0.0763
     16 C         138.2741  140.7579  164.8497 C.ar    1  UNL1        0.0167
     17 N         137.7279  143.8016  162.3622 N.1     1  UNL1       -0.1908
     18 C         138.2681  142.9706  163.4881 C.1     1  UNL1        0.1004
     19 C         138.2801  138.5452  166.2113 C.2     1  UNL1        0.3466
     20 O         137.1798  138.3262  167.2069 O.2     1  UNL1       -0.2447
     21 O         138.8463  137.3825  165.4512 O.3     1  UNL1       -0.3701
     22 C         139.7048  137.6216  164.2447 C.3     1  UNL1        0.5774
     23 F         140.5633  137.8608  163.0381 F       1  UNL1       -0.1328
     24 F         140.9348  137.4652  165.0889 F       1  UNL1       -0.1328
     25 F         138.4748  137.7781  163.4006 F       1  UNL1       -0.1328
     26 C         144.1010  137.6656  161.3442 C.3     1  UNL1        0.0910
     27 N         142.9095  137.3264  160.4985 N.am    1  UNL1       -0.2890
     28 C         142.7221  137.9896  159.1662 C.2     1  UNL1        0.3008
     29 O         143.7262  138.9921  158.6796 O.2     1  UNL1       -0.2528
     30 N         141.5305  137.6502  158.3206 N.am    1  UNL1       -0.2889
     31 H         142.2505  136.6684  160.8179 H       1  UNL1        0.1510
     32 H         140.8715  136.9923  158.6399 H       1  UNL1        0.1510
     33 C         141.3431  138.3134  156.9883 C.3     1  UNL1        0.0913
     34 C         140.7777  137.5364  155.8366 C.3     1  UNL1        0.0276
     35 C         141.6608  136.6157  155.0474 C.3     1  UNL1        0.0486
     36 C         142.2709  135.4142  155.7062 C.ar    1  UNL1        0.0741
     37 C         141.7468  134.0104  155.6388 C.ar    1  UNL1        0.1378
     38 N         142.6643  133.1341  156.4391 N.ar    1  UNL1       -0.1277
     39 N         143.7555  133.9964  157.0011 N.ar    1  UNL1       -0.0675
     40 N         143.5124  135.4055  156.5482 N.ar    1  UNL1       -0.2605
     41 H         144.0697  136.1875  156.7654 H       1  UNL1        0.1903
@<TRIPOS>BOND
     1    17    18    3
     2    18    11    1
     3    11    12   ar
     4    12    13   ar
     5    13    10    1
     6    10     9    1
     7     9     1    1
     8     1     2    2
     9     1     3   am
    10     3     4    1
    11     5     4    1
    12     5     6    1
    13     6    26    1
    14    26    27    1
    15    27    28   am
    16    28    29    2
    17    28    30   am
    18    30    33    1
    19    33    34    1
    20    34    35    1
    21    35    36    1
    22    36    37   ar
    23    37    38   ar
    24    38    39   ar
    25    39    40   ar
    26     6     7    1
    27     7     8    1
    28    13    14   ar
    29    14    15   ar
    30    15    19    1
    31    19    20    2
    32    19    21    1
    33    21    22    1
    34    22    23    1
    35    22    24    1
    36    22    25    1
    37    15    16   ar
    38    16    11   ar
    39     8     3    1
    40     7     5    1
    41    40    36   ar
    42    27    31    1
    43    30    32    1
    44    40    41    1
