@<TRIPOS>MOLECULE
*****
 38 42 0 0 0
SMALL
GASTEIGER

@<TRIPOS>ATOM
      1 C         143.7871  139.9737  155.9950 C.3     1  UNL1        0.1021
      2 C         144.5362  140.6265  154.8714 C.3     1  UNL1        0.0643
      3 C         145.4015  141.8216  155.1414 C.3     1  UNL1        0.1368
      4 C         146.3396  142.9665  154.8982 C.3     1  UNL1        0.0437
      5 C         145.6112  141.6770  153.6632 C.3     1  UNL1        0.0437
      6 O         145.5176  142.3639  156.5352 O.3     1  UNL1       -0.4676
      7 C         144.7685  141.7111  157.6588 C.ar    1  UNL1        0.2219
      8 N         144.8846  142.2533  159.0525 N.ar    1  UNL1       -0.2119
      9 C         144.1355  141.6005  160.1761 C.ar    1  UNL1        0.0851
     10 C         143.2702  140.4054  159.9061 C.ar    1  UNL1        0.0177
     11 C         143.1540  139.8631  158.5124 C.ar    1  UNL1        0.0034
     12 C         143.9032  140.5160  157.3887 C.ar    1  UNL1        0.0488
     13 C         144.2517  142.1428  161.5698 C.ar    1  UNL1        0.0284
     14 C         145.2421  141.5474  162.5262 C.ar    1  UNL1        0.0032
     15 C         145.3583  142.0897  163.9199 C.ar    1  UNL1        0.0115
     16 C         144.4840  143.2274  164.3573 C.ar    1  UNL1        0.0585
     17 CL        144.6001  143.7697  165.7510 Cl      1  UNL1       -0.0822
     18 C         143.4936  143.8228  163.4009 C.ar    1  UNL1        0.0228
     19 C         143.3774  143.2805  162.0072 C.ar    1  UNL1        0.0599
     20 CL        142.3871  143.8759  161.0509 Cl      1  UNL1       -0.0822
     21 C         142.5211  139.7526  161.0297 C.ar    1  UNL1        0.0015
     22 C         143.1248  138.5876  161.7566 C.ar    1  UNL1        0.0009
     23 C         142.3756  137.9348  162.8803 C.ar    1  UNL1        0.0114
     24 C         141.0227  138.4469  163.2771 C.ar    1  UNL1        0.0577
     25 CL        140.2736  137.7941  164.4007 Cl      1  UNL1       -0.0822
     26 C         140.4190  139.6119  162.5502 C.ar    1  UNL1        0.0114
     27 C         141.1682  140.2647  161.4266 C.ar    1  UNL1        0.0009
     28 C         143.5496  137.4406  155.4685 C.2     1  UNL1        0.2330
     29 O         145.0428  137.2978  155.4820 O.2     1  UNL1       -0.2743
     30 N         142.9217  138.7785  155.7250 N.am    1  UNL1       -0.3013
     31 H         141.9417  138.8722  155.7161 H       1  UNL1        0.1497
     32 C         141.6691  136.9885  152.8400 C.3     1  UNL1        0.0500
     33 C         141.8200  136.0377  153.9903 C.2     1  UNL1        0.0723
     34 N         141.1329  134.7121  154.1343 N.2     1  UNL1       -0.1565
     35 N         141.5727  134.1005  155.4315 N.2     1  UNL1       -0.1565
     36 C         142.5315  135.0482  156.0892 C.2     1  UNL1        0.0723
     37 C         143.2171  134.8360  157.4063 C.3     1  UNL1        0.0500
     38 C         142.6843  136.2454  155.1984 C.3     1  UNL1        0.1516
@<TRIPOS>BOND
     1    32    33    1
     2    33    34    2
     3    34    35    1
     4    35    36    2
     5    36    37    1
     6    36    38    1
     7    38    28    1
     8    28    29    2
     9    28    30   am
    10     1    30    1
    11     1     2    1
    12     2     3    1
    13     3     4    1
    14     3     5    1
    15     3     6    1
    16     6     7    1
    17     7     8   ar
    18     8     9   ar
    19     9    13    1
    20    13    14   ar
    21    14    15   ar
    22    15    16   ar
    23    16    17    1
    24    16    18   ar
    25    18    19   ar
    26    19    20    1
    27     9    10   ar
    28    10    21    1
    29    21    22   ar
    30    22    23   ar
    31    23    24   ar
    32    24    25    1
    33    24    26   ar
    34    26    27   ar
    35    10    11   ar
    36    11    12   ar
    37    38    33    1
    38    12     1    1
    39    12     7   ar
    40    19    13   ar
    41    27    21   ar
    42    30    31    1
@<TRIPOS>MOLECULE
*****
 38 42 0 0 0
SMALL
GASTEIGER

@<TRIPOS>ATOM
      1 C         138.5518  140.0741  156.6551 C.3     1  UNL1        0.1021
      2 C         137.9315  140.7291  155.4567 C.3     1  UNL1        0.0643
      3 C         137.3349  142.1001  155.5761 C.3     1  UNL1        0.1368
      4 C         136.6471  143.3764  155.1914 C.3     1  UNL1        0.0437
      5 C         137.0723  141.8274  154.1247 C.3     1  UNL1        0.0437
      6 O         137.3585  142.8162  156.8939 O.3     1  UNL1       -0.4676
      7 C         137.9788  142.1612  158.0923 C.ar    1  UNL1        0.2219
      8 N         138.0024  142.8773  159.4102 N.ar    1  UNL1       -0.2119
      9 C         138.6227  142.2223  160.6086 C.ar    1  UNL1        0.0851
     10 C         139.2194  140.8512  160.4892 C.ar    1  UNL1        0.0177
     11 C         139.1957  140.1352  159.1714 C.ar    1  UNL1        0.0034
     12 C         138.5754  140.7902  157.9729 C.ar    1  UNL1        0.0488
     13 C         138.6463  142.9384  161.9264 C.ar    1  UNL1        0.0284
     14 C         137.5980  142.6448  162.9584 C.ar    1  UNL1        0.0032
     15 C         137.6216  143.3609  164.2762 C.ar    1  UNL1        0.0115
     16 C         138.6936  144.3705  164.5621 C.ar    1  UNL1        0.0585
     17 CL        138.7172  145.0865  165.8800 Cl      1  UNL1       -0.0822
     18 C         139.7419  144.6639  163.5302 C.ar    1  UNL1        0.0228
     19 C         139.7182  143.9479  162.2123 C.ar    1  UNL1        0.0599
     20 CL        140.7665  144.2414  161.1804 Cl      1  UNL1       -0.0822
     21 C         139.8397  140.1963  161.6876 C.ar    1  UNL1        0.0015
     22 C         141.2578  140.5089  162.0632 C.ar    1  UNL1        0.0009
     23 C         141.8781  139.8538  163.2617 C.ar    1  UNL1        0.0114
     24 C         141.0802  138.8863  164.0845 C.ar    1  UNL1        0.0577
     25 CL        141.7005  138.2313  165.2830 Cl      1  UNL1       -0.0822
     26 C         139.6620  138.5737  163.7090 C.ar    1  UNL1        0.0114
     27 C         139.0417  139.2287  162.5106 C.ar    1  UNL1        0.0009
     28 C         140.5314  138.5327  155.9802 C.2     1  UNL1        0.2330
     29 O         141.3176  139.7335  155.5442 O.2     1  UNL1       -0.2743
     30 N         139.1485  138.7030  156.5357 N.am    1  UNL1       -0.3013
     31 H         138.6324  137.9150  156.8219 H       1  UNL1        0.1497
     32 C         139.8848  136.3569  153.6357 C.3     1  UNL1        0.0500
     33 C         140.8309  136.1616  154.7832 C.2     1  UNL1        0.0723
     34 N         141.6458  134.9319  155.0544 N.2     1  UNL1       -0.1565
     35 N         142.4468  135.1720  156.2998 N.2     1  UNL1       -0.1565
     36 C         142.1268  136.5501  156.7982 C.2     1  UNL1        0.0723
     37 C         142.7041  137.2021  158.0195 C.3     1  UNL1        0.0500
     38 C         141.1281  137.1617  155.8608 C.3     1  UNL1        0.1516
@<TRIPOS>BOND
     1    32    33    1
     2    33    34    2
     3    34    35    1
     4    35    36    2
     5    36    37    1
     6    36    38    1
     7    38    28    1
     8    28    29    2
     9    28    30   am
    10     1    30    1
    11     1     2    1
    12     2     3    1
    13     3     4    1
    14     3     5    1
    15     3     6    1
    16     6     7    1
    17     7     8   ar
    18     8     9   ar
    19     9    13    1
    20    13    14   ar
    21    14    15   ar
    22    15    16   ar
    23    16    17    1
    24    16    18   ar
    25    18    19   ar
    26    19    20    1
    27     9    10   ar
    28    10    21    1
    29    21    22   ar
    30    22    23   ar
    31    23    24   ar
    32    24    25    1
    33    24    26   ar
    34    26    27   ar
    35    10    11   ar
    36    11    12   ar
    37    38    33    1
    38    12     1    1
    39    12     7   ar
    40    19    13   ar
    41    27    21   ar
    42    30    31    1
@<TRIPOS>MOLECULE
*****
 38 42 0 0 0
SMALL
GASTEIGER

@<TRIPOS>ATOM
      1 C         139.5078  140.5475  156.4479 C.3     1  UNL1        0.1021
      2 C         138.5523  140.8772  155.3396 C.3     1  UNL1        0.0643
      3 C         137.4435  141.8600  155.5729 C.3     1  UNL1        0.1368
      4 C         136.2431  142.7197  155.3084 C.3     1  UNL1        0.0437
      5 C         137.1799  141.5055  154.1394 C.3     1  UNL1        0.0437
      6 O         137.2900  142.5131  156.9145 O.3     1  UNL1       -0.4676
      7 C         138.2455  142.1834  158.0228 C.ar    1  UNL1        0.2219
      8 N         138.0920  142.8365  159.3644 N.ar    1  UNL1       -0.2119
      9 C         139.0474  142.5069  160.4727 C.ar    1  UNL1        0.0851
     10 C         140.1564  141.5240  160.2395 C.ar    1  UNL1        0.0177
     11 C         140.3098  140.8709  158.8979 C.ar    1  UNL1        0.0034
     12 C         139.3543  141.2006  157.7895 C.ar    1  UNL1        0.0488
     13 C         138.8940  143.1600  161.8144 C.ar    1  UNL1        0.0284
     14 C         139.5841  144.4612  162.0984 C.ar    1  UNL1        0.0032
     15 C         139.4307  145.1143  163.4400 C.ar    1  UNL1        0.0115
     16 C         138.5871  144.4662  164.4976 C.ar    1  UNL1        0.0585
     17 CL        138.4337  145.1193  165.8392 Cl      1  UNL1       -0.0822
     18 C         137.8971  143.1650  164.2135 C.ar    1  UNL1        0.0228
     19 C         138.0505  142.5119  162.8719 C.ar    1  UNL1        0.0599
     20 CL        137.3605  141.2107  162.5879 Cl      1  UNL1       -0.0822
     21 C         141.1118  141.1943  161.3478 C.ar    1  UNL1        0.0015
     22 C         142.3525  142.0156  161.5376 C.ar    1  UNL1        0.0009
     23 C         143.3080  141.6859  162.6460 C.ar    1  UNL1        0.0114
     24 C         143.0227  140.5349  163.5645 C.ar    1  UNL1        0.0577
     25 CL        143.9781  140.2052  164.6728 Cl      1  UNL1       -0.0822
     26 C         141.7820  139.7135  163.3747 C.ar    1  UNL1        0.0114
     27 C         140.8266  140.0432  162.2664 C.ar    1  UNL1        0.0009
     28 C         140.3295  138.0925  156.2293 C.2     1  UNL1        0.2330
     29 O         138.9333  137.6032  156.4773 O.2     1  UNL1       -0.2743
     30 N         140.6167  139.5647  156.2147 N.am    1  UNL1       -0.3013
     31 H         141.5330  139.8859  156.0520 H       1  UNL1        0.1497
     32 C         142.7908  137.4564  158.2755 C.3     1  UNL1        0.0500
     33 C         142.5696  136.8173  156.9366 C.2     1  UNL1        0.0723
     34 N         143.4411  135.7736  156.3032 N.2     1  UNL1       -0.1565
     35 N         142.8483  135.4209  154.9711 N.2     1  UNL1       -0.1565
     36 C         141.6105  136.2466  154.7814 C.2     1  UNL1        0.0723
     37 C         140.7041  136.2149  153.5866 C.3     1  UNL1        0.0500
     38 C         141.4383  137.1097  155.9961 C.3     1  UNL1        0.1516
@<TRIPOS>BOND
     1    32    33    1
     2    33    34    2
     3    34    35    1
     4    35    36    2
     5    36    37    1
     6    36    38    1
     7    38    28    1
     8    28    29    2
     9    28    30   am
    10     1    30    1
    11     1     2    1
    12     2     3    1
    13     3     4    1
    14     3     5    1
    15     3     6    1
    16     6     7    1
    17     7     8   ar
    18     8     9   ar
    19     9    13    1
    20    13    14   ar
    21    14    15   ar
    22    15    16   ar
    23    16    17    1
    24    16    18   ar
    25    18    19   ar
    26    19    20    1
    27     9    10   ar
    28    10    21    1
    29    21    22   ar
    30    22    23   ar
    31    23    24   ar
    32    24    25    1
    33    24    26   ar
    34    26    27   ar
    35    10    11   ar
    36    11    12   ar
    37    38    33    1
    38    12     1    1
    39    12     7   ar
    40    19    13   ar
    41    27    21   ar
    42    30    31    1
@<TRIPOS>MOLECULE
*****
 38 42 0 0 0
SMALL
GASTEIGER

@<TRIPOS>ATOM
      1 C         141.2451  142.5965  156.4390 C.3     1  UNL1        0.1021
      2 C         141.1858  143.6223  155.3462 C.3     1  UNL1        0.0643
      3 C         140.6985  145.0091  155.6450 C.3     1  UNL1        0.1368
      4 C         140.3134  146.4435  155.4353 C.3     1  UNL1        0.0437
      5 C         140.9927  145.1463  154.1806 C.3     1  UNL1        0.0437
      6 O         140.2705  145.3701  157.0366 O.3     1  UNL1       -0.4676
      7 C         140.3298  144.3443  158.1294 C.ar    1  UNL1        0.2219
      8 N         139.9018  144.7053  159.5210 N.ar    1  UNL1       -0.2119
      9 C         139.9611  143.6795  160.6137 C.ar    1  UNL1        0.0851
     10 C         140.4484  142.2926  160.3149 C.ar    1  UNL1        0.0177
     11 C         140.8764  141.9316  158.9234 C.ar    1  UNL1        0.0034
     12 C         140.8171  142.9575  157.8306 C.ar    1  UNL1        0.0488
     13 C         139.5330  144.0405  162.0053 C.ar    1  UNL1        0.0284
     14 C         138.1109  143.8266  162.4318 C.ar    1  UNL1        0.0032
     15 C         137.6829  144.1876  163.8234 C.ar    1  UNL1        0.0115
     16 C         138.6770  144.7625  164.7885 C.ar    1  UNL1        0.0585
     17 CL        138.2490  145.1235  166.1800 Cl      1  UNL1       -0.0822
     18 C         140.0991  144.9763  164.3619 C.ar    1  UNL1        0.0228
     19 C         140.5271  144.6153  162.9704 C.ar    1  UNL1        0.0599
     20 CL        141.9492  144.8291  162.5438 Cl      1  UNL1       -0.0822
     21 C         140.5076  141.2668  161.4077 C.ar    1  UNL1        0.0015
     22 C         141.7433  141.1368  162.2481 C.ar    1  UNL1        0.0009
     23 C         141.8025  140.1109  163.3409 C.ar    1  UNL1        0.0114
     24 C         140.6262  139.2152  163.5933 C.ar    1  UNL1        0.0577
     25 CL        140.6854  138.1894  164.6861 Cl      1  UNL1       -0.0822
     26 C         139.3905  139.3452  162.7529 C.ar    1  UNL1        0.0114
     27 C         139.3312  140.3710  161.6602 C.ar    1  UNL1        0.0009
     28 C         143.1260  140.8061  156.5209 C.2     1  UNL1        0.2330
     29 O         144.0324  141.7895  157.2003 O.2     1  UNL1       -0.2743
     30 N         141.7324  141.2096  156.1402 N.am    1  UNL1       -0.3013
     31 H         141.1375  140.5642  155.6943 H       1  UNL1        0.1497
     32 C         141.9630  138.0444  157.8130 C.3     1  UNL1        0.0500
     33 C         143.0787  138.1499  156.8160 C.2     1  UNL1        0.0723
     34 N         143.8558  137.0045  156.2380 N.2     1  UNL1       -0.1565
     35 N         144.8707  137.5660  155.2868 N.2     1  UNL1       -0.1565
     36 C         144.7209  139.0584  155.2770 C.2     1  UNL1        0.0723
     37 C         145.5355  140.0210  154.4647 C.3     1  UNL1        0.0500
     38 C         143.6134  139.4193  156.2221 C.3     1  UNL1        0.1516
@<TRIPOS>BOND
     1    32    33    1
     2    33    34    2
     3    34    35    1
     4    35    36    2
     5    36    37    1
     6    36    38    1
     7    38    28    1
     8    28    29    2
     9    28    30   am
    10     1    30    1
    11     1     2    1
    12     2     3    1
    13     3     4    1
    14     3     5    1
    15     3     6    1
    16     6     7    1
    17     7     8   ar
    18     8     9   ar
    19     9    13    1
    20    13    14   ar
    21    14    15   ar
    22    15    16   ar
    23    16    17    1
    24    16    18   ar
    25    18    19   ar
    26    19    20    1
    27     9    10   ar
    28    10    21    1
    29    21    22   ar
    30    22    23   ar
    31    23    24   ar
    32    24    25    1
    33    24    26   ar
    34    26    27   ar
    35    10    11   ar
    36    11    12   ar
    37    38    33    1
    38    12     1    1
    39    12     7   ar
    40    19    13   ar
    41    27    21   ar
    42    30    31    1
@<TRIPOS>MOLECULE
*****
 38 42 0 0 0
SMALL
GASTEIGER

@<TRIPOS>ATOM
      1 C         139.7350  140.7536  156.7783 C.3     1  UNL1        0.1021
      2 C         138.5687  140.9102  155.8482 C.3     1  UNL1        0.0643
      3 C         137.1690  140.7857  156.3729 C.3     1  UNL1        0.1368
      4 C         135.6695  140.7552  156.3950 C.3     1  UNL1        0.0437
      5 C         136.8816  141.0561  154.9257 C.3     1  UNL1        0.0437
      6 O         136.9356  140.5047  157.8277 O.3     1  UNL1       -0.4676
      7 C         138.1019  140.3482  158.7579 C.ar    1  UNL1        0.2219
      8 N         137.8685  140.0672  160.2127 N.ar    1  UNL1       -0.2119
      9 C         139.0348  139.9107  161.1429 C.ar    1  UNL1        0.0851
     10 C         140.4346  140.0351  160.6182 C.ar    1  UNL1        0.0177
     11 C         140.6680  140.3161  159.1634 C.ar    1  UNL1        0.0034
     12 C         139.5016  140.4726  158.2332 C.ar    1  UNL1        0.0488
     13 C         138.8014  139.6297  162.5977 C.ar    1  UNL1        0.0284
     14 C         138.9165  138.2277  163.1187 C.ar    1  UNL1        0.0032
     15 C         138.6831  137.9467  164.5735 C.ar    1  UNL1        0.0115
     16 C         138.3345  139.0677  165.5074 C.ar    1  UNL1        0.0585
     17 CL        138.1011  138.7867  166.9622 Cl      1  UNL1       -0.0822
     18 C         138.2194  140.4696  164.9864 C.ar    1  UNL1        0.0228
     19 C         138.4529  140.7506  163.5316 C.ar    1  UNL1        0.0599
     20 CL        138.3378  142.1524  163.0106 Cl      1  UNL1       -0.0822
     21 C         141.6008  139.8785  161.5484 C.ar    1  UNL1        0.0015
     22 C         142.3299  138.5698  161.6234 C.ar    1  UNL1        0.0009
     23 C         143.4962  138.4133  162.5537 C.ar    1  UNL1        0.0114
     24 C         143.9334  139.5655  163.4087 C.ar    1  UNL1        0.0577
     25 CL        145.0997  139.4089  164.3389 Cl      1  UNL1       -0.0822
     26 C         143.2044  140.8742  163.3337 C.ar    1  UNL1        0.0114
     27 C         142.0381  141.0308  162.4035 C.ar    1  UNL1        0.0009
     28 C         141.9138  139.6471  155.8959 C.2     1  UNL1        0.2330
     29 O         141.2930  138.2918  156.0628 O.2     1  UNL1       -0.2743
     30 N         141.1348  140.8780  156.2537 N.am    1  UNL1       -0.3013
     31 H         141.5422  141.7676  156.1441 H       1  UNL1        0.1497
     32 C         144.4985  140.7339  157.5655 C.3     1  UNL1        0.0500
     33 C         144.5016  140.2711  156.1387 C.2     1  UNL1        0.0723
     34 N         145.6933  140.2265  155.2288 N.2     1  UNL1       -0.1565
     35 N         145.2417  139.6994  153.8990 N.2     1  UNL1       -0.1565
     36 C         143.7710  139.4182  153.9871 C.2     1  UNL1        0.0723
     37 C         142.9090  138.8785  152.8845 C.3     1  UNL1        0.0500
     38 C         143.3135  139.7715  155.3713 C.3     1  UNL1        0.1516
@<TRIPOS>BOND
     1    32    33    1
     2    33    34    2
     3    34    35    1
     4    35    36    2
     5    36    37    1
     6    36    38    1
     7    38    28    1
     8    28    29    2
     9    28    30   am
    10     1    30    1
    11     1     2    1
    12     2     3    1
    13     3     4    1
    14     3     5    1
    15     3     6    1
    16     6     7    1
    17     7     8   ar
    18     8     9   ar
    19     9    13    1
    20    13    14   ar
    21    14    15   ar
    22    15    16   ar
    23    16    17    1
    24    16    18   ar
    25    18    19   ar
    26    19    20    1
    27     9    10   ar
    28    10    21    1
    29    21    22   ar
    30    22    23   ar
    31    23    24   ar
    32    24    25    1
    33    24    26   ar
    34    26    27   ar
    35    10    11   ar
    36    11    12   ar
    37    38    33    1
    38    12     1    1
    39    12     7   ar
    40    19    13   ar
    41    27    21   ar
    42    30    31    1
@<TRIPOS>MOLECULE
*****
 38 42 0 0 0
SMALL
GASTEIGER

@<TRIPOS>ATOM
      1 C         142.1596  145.0566  156.0467 C.3     1  UNL1        0.1021
      2 C         141.3999  145.9694  155.1304 C.3     1  UNL1        0.0643
      3 C         140.2066  146.7213  155.6410 C.3     1  UNL1        0.1368
      4 C         139.0209  147.6399  155.6581 C.3     1  UNL1        0.0437
      5 C         140.2284  147.2013  154.2201 C.3     1  UNL1        0.0437
      6 O         139.7730  146.5604  157.0679 O.3     1  UNL1       -0.4676
      7 C         140.5327  145.6476  157.9842 C.ar    1  UNL1        0.2219
      8 N         140.0991  145.4866  159.4111 N.ar    1  UNL1       -0.2119
      9 C         140.8587  144.5738  160.3274 C.ar    1  UNL1        0.0851
     10 C         142.0521  143.8219  159.8169 C.ar    1  UNL1        0.0177
     11 C         142.4857  143.9828  158.3899 C.ar    1  UNL1        0.0034
     12 C         141.7259  144.8957  157.4736 C.ar    1  UNL1        0.0488
     13 C         140.4251  144.4129  161.7544 C.ar    1  UNL1        0.0284
     14 C         141.1134  145.1871  162.8393 C.ar    1  UNL1        0.0032
     15 C         140.6798  145.0262  164.2662 C.ar    1  UNL1        0.0115
     16 C         139.5579  144.0910  164.6082 C.ar    1  UNL1        0.0585
     17 CL        139.1243  143.9301  166.0351 Cl      1  UNL1       -0.0822
     18 C         138.8697  143.3169  163.5233 C.ar    1  UNL1        0.0228
     19 C         139.3033  143.4778  162.0964 C.ar    1  UNL1        0.0599
     20 CL        138.6151  142.7037  161.0115 Cl      1  UNL1       -0.0822
     21 C         142.8117  142.9091  160.7332 C.ar    1  UNL1        0.0015
     22 C         142.3623  141.4903  160.9201 C.ar    1  UNL1        0.0009
     23 C         143.1220  140.5775  161.8365 C.ar    1  UNL1        0.0114
     24 C         144.3311  141.0835  162.5659 C.ar    1  UNL1        0.0577
     25 CL        145.0908  140.1707  163.4822 Cl      1  UNL1       -0.0822
     26 C         144.7805  142.5023  162.3789 C.ar    1  UNL1        0.0114
     27 C         144.0209  143.4151  161.4626 C.ar    1  UNL1        0.0009
     28 C         143.1973  142.8969  155.0423 C.2     1  UNL1        0.2330
     29 O         141.8483  142.2410  155.0591 O.2     1  UNL1       -0.2743
     30 N         143.3529  144.3047  155.5361 N.am    1  UNL1       -0.3013
     31 H         144.2382  144.7352  155.5251 H       1  UNL1        0.1497
     32 C         143.6697  141.9073  151.9688 C.3     1  UNL1        0.0500
     33 C         144.6077  141.6901  153.1190 C.2     1  UNL1        0.0723
     34 N         145.9275  140.9799  153.0584 N.2     1  UNL1       -0.1565
     35 N         146.5261  140.9958  154.4337 N.2     1  UNL1       -0.1565
     36 C         145.5762  141.7159  155.3443 C.2     1  UNL1        0.0723
     37 C         145.7767  141.9634  156.8101 C.3     1  UNL1        0.0500
     38 C         144.3905  142.1450  154.5318 C.3     1  UNL1        0.1516
@<TRIPOS>BOND
     1    32    33    1
     2    33    34    2
     3    34    35    1
     4    35    36    2
     5    36    37    1
     6    36    38    1
     7    38    28    1
     8    28    29    2
     9    28    30   am
    10     1    30    1
    11     1     2    1
    12     2     3    1
    13     3     4    1
    14     3     5    1
    15     3     6    1
    16     6     7    1
    17     7     8   ar
    18     8     9   ar
    19     9    13    1
    20    13    14   ar
    21    14    15   ar
    22    15    16   ar
    23    16    17    1
    24    16    18   ar
    25    18    19   ar
    26    19    20    1
    27     9    10   ar
    28    10    21    1
    29    21    22   ar
    30    22    23   ar
    31    23    24   ar
    32    24    25    1
    33    24    26   ar
    34    26    27   ar
    35    10    11   ar
    36    11    12   ar
    37    38    33    1
    38    12     1    1
    39    12     7   ar
    40    19    13   ar
    41    27    21   ar
    42    30    31    1
@<TRIPOS>MOLECULE
*****
 38 42 0 0 0
SMALL
GASTEIGER

@<TRIPOS>ATOM
      1 C         141.4951  139.3628  156.7346 C.3     1  UNL1        0.1021
      2 C         142.0042  138.3467  155.7557 C.3     1  UNL1        0.0643
      3 C         142.8144  137.1803  156.2385 C.3     1  UNL1        0.1368
      4 C         143.6168  135.9133  156.2103 C.3     1  UNL1        0.0437
      5 C         142.7921  136.8906  154.7670 C.3     1  UNL1        0.0437
      6 O         143.1153  137.0300  157.7003 O.3     1  UNL1       -0.4676
      7 C         142.6062  138.0461  158.6793 C.ar    1  UNL1        0.2219
      8 N         142.9072  137.8957  160.1410 N.ar    1  UNL1       -0.2119
      9 C         142.3980  138.9118  161.1200 C.ar    1  UNL1        0.0851
     10 C         141.5878  140.0782  160.6371 C.ar    1  UNL1        0.0177
     11 C         141.2868  140.2286  159.1754 C.ar    1  UNL1        0.0034
     12 C         141.7960  139.2124  158.1964 C.ar    1  UNL1        0.0488
     13 C         142.6990  138.7615  162.5818 C.ar    1  UNL1        0.0284
     14 C         143.9508  139.3569  163.1549 C.ar    1  UNL1        0.0032
     15 C         144.2518  139.2066  164.6166 C.ar    1  UNL1        0.0115
     16 C         143.3009  138.4608  165.5053 C.ar    1  UNL1        0.0585
     17 CL        143.6019  138.3105  166.9671 Cl      1  UNL1       -0.0822
     18 C         142.0491  137.8654  164.9322 C.ar    1  UNL1        0.0228
     19 C         141.7482  138.0157  163.4704 C.ar    1  UNL1        0.0599
     20 CL        140.4964  137.4203  162.8973 Cl      1  UNL1       -0.0822
     21 C         141.0786  141.0943  161.6161 C.ar    1  UNL1        0.0015
     22 C         139.7202  140.9290  162.2303 C.ar    1  UNL1        0.0009
     23 C         139.2110  141.9451  163.2093 C.ar    1  UNL1        0.0114
     24 C         140.0603  143.1264  163.5740 C.ar    1  UNL1        0.0577
     25 CL        139.5511  144.1425  164.5529 Cl      1  UNL1       -0.0822
     26 C         141.4188  143.2917  162.9598 C.ar    1  UNL1        0.0114
     27 C         141.9279  142.2757  161.9808 C.ar    1  UNL1        0.0009
     28 C         139.1866  140.4571  156.2615 C.2     1  UNL1        0.2330
     29 O         138.4986  139.2185  156.7541 O.2     1  UNL1       -0.2743
     30 N         140.6849  140.5292  156.2518 N.am    1  UNL1       -0.3013
     31 H         141.1365  141.3421  155.9285 H       1  UNL1        0.1497
     32 C         139.0953  143.4227  157.6201 C.3     1  UNL1        0.0500
     33 C         138.3345  142.9866  156.4032 C.2     1  UNL1        0.0723
     34 N         137.3981  143.8371  155.5971 N.2     1  UNL1       -0.1565
     35 N         136.8613  142.9995  154.4744 N.2     1  UNL1       -0.1565
     36 C         137.4660  141.6315  154.5866 C.2     1  UNL1        0.0723
     37 C         137.2059  140.4745  153.6681 C.3     1  UNL1        0.0500
     38 C         138.3764  141.6234  155.7787 C.3     1  UNL1        0.1516
@<TRIPOS>BOND
     1    32    33    1
     2    33    34    2
     3    34    35    1
     4    35    36    2
     5    36    37    1
     6    36    38    1
     7    38    28    1
     8    28    29    2
     9    28    30   am
    10     1    30    1
    11     1     2    1
    12     2     3    1
    13     3     4    1
    14     3     5    1
    15     3     6    1
    16     6     7    1
    17     7     8   ar
    18     8     9   ar
    19     9    13    1
    20    13    14   ar
    21    14    15   ar
    22    15    16   ar
    23    16    17    1
    24    16    18   ar
    25    18    19   ar
    26    19    20    1
    27     9    10   ar
    28    10    21    1
    29    21    22   ar
    30    22    23   ar
    31    23    24   ar
    32    24    25    1
    33    24    26   ar
    34    26    27   ar
    35    10    11   ar
    36    11    12   ar
    37    38    33    1
    38    12     1    1
    39    12     7   ar
    40    19    13   ar
    41    27    21   ar
    42    30    31    1
@<TRIPOS>MOLECULE
*****
 38 42 0 0 0
SMALL
GASTEIGER

@<TRIPOS>ATOM
      1 C         139.8815  140.9807  156.3225 C.3     1  UNL1        0.1021
      2 C         138.7519  140.9829  155.3356 C.3     1  UNL1        0.0643
      3 C         137.4289  141.5814  155.7113 C.3     1  UNL1        0.1368
      4 C         136.0008  142.0266  155.6004 C.3     1  UNL1        0.0437
      5 C         137.1263  141.1396  154.3102 C.3     1  UNL1        0.0437
      6 O         137.2354  142.1779  157.0739 O.3     1  UNL1       -0.4676
      7 C         138.3650  142.1758  158.0609 C.ar    1  UNL1        0.2219
      8 N         138.1715  142.7723  159.4235 N.ar    1  UNL1       -0.2119
      9 C         139.3010  142.7701  160.4104 C.ar    1  UNL1        0.0851
     10 C         140.6242  142.1715  160.0347 C.ar    1  UNL1        0.0177
     11 C         140.8177  141.5750  158.6721 C.ar    1  UNL1        0.0034
     12 C         139.6880  141.5772  157.6851 C.ar    1  UNL1        0.0488
     13 C         139.1076  143.3666  161.7731 C.ar    1  UNL1        0.0284
     14 C         138.4865  142.5505  162.8677 C.ar    1  UNL1        0.0032
     15 C         138.2930  143.1469  164.2304 C.ar    1  UNL1        0.0115
     16 C         138.7206  144.5595  164.4983 C.ar    1  UNL1        0.0585
     17 CL        138.5271  145.1560  165.8610 Cl      1  UNL1       -0.0822
     18 C         139.3417  145.3756  163.4037 C.ar    1  UNL1        0.0228
     19 C         139.5351  144.7791  162.0411 C.ar    1  UNL1        0.0599
     20 CL        140.1562  145.5952  160.9464 Cl      1  UNL1       -0.0822
     21 C         141.7537  142.1694  161.0216 C.ar    1  UNL1        0.0015
     22 C         141.8344  141.0966  162.0669 C.ar    1  UNL1        0.0009
     23 C         142.9641  141.0945  163.0538 C.ar    1  UNL1        0.0114
     24 C         144.0129  142.1652  162.9955 C.ar    1  UNL1        0.0577
     25 CL        145.1425  142.1631  163.9824 Cl      1  UNL1       -0.0822
     26 C         143.9322  143.2380  161.9502 C.ar    1  UNL1        0.0114
     27 C         142.8027  143.2401  160.9633 C.ar    1  UNL1        0.0009
     28 C         141.5938  139.0326  156.4733 C.2     1  UNL1        0.2330
     29 O         140.6599  138.2816  157.3756 O.2     1  UNL1       -0.2743
     30 N         141.2046  140.3821  155.9468 N.am    1  UNL1       -0.3013
     31 H         141.8175  140.8750  155.3546 H       1  UNL1        0.1497
     32 C         142.1892  135.8657  155.9581 C.3     1  UNL1        0.0500
     33 C         143.1905  136.9783  155.8609 C.2     1  UNL1        0.0723
     34 N         144.6413  136.8305  155.5097 N.2     1  UNL1       -0.1565
     35 N         145.2644  138.1949  155.5295 N.2     1  UNL1       -0.1565
     36 C         144.1985  139.1859  155.8929 C.2     1  UNL1        0.0723
     37 C         144.3822  140.6684  156.0279 C.3     1  UNL1        0.0500
     38 C         142.9169  138.4339  156.0977 C.3     1  UNL1        0.1516
@<TRIPOS>BOND
     1    32    33    1
     2    33    34    2
     3    34    35    1
     4    35    36    2
     5    36    37    1
     6    36    38    1
     7    38    28    1
     8    28    29    2
     9    28    30   am
    10     1    30    1
    11     1     2    1
    12     2     3    1
    13     3     4    1
    14     3     5    1
    15     3     6    1
    16     6     7    1
    17     7     8   ar
    18     8     9   ar
    19     9    13    1
    20    13    14   ar
    21    14    15   ar
    22    15    16   ar
    23    16    17    1
    24    16    18   ar
    25    18    19   ar
    26    19    20    1
    27     9    10   ar
    28    10    21    1
    29    21    22   ar
    30    22    23   ar
    31    23    24   ar
    32    24    25    1
    33    24    26   ar
    34    26    27   ar
    35    10    11   ar
    36    11    12   ar
    37    38    33    1
    38    12     1    1
    39    12     7   ar
    40    19    13   ar
    41    27    21   ar
    42    30    31    1
@<TRIPOS>MOLECULE
*****
 38 42 0 0 0
SMALL
GASTEIGER

@<TRIPOS>ATOM
      1 C         143.4678  139.3650  157.2705 C.3     1  UNL1        0.1021
      2 C         144.3706  140.0561  156.2921 C.3     1  UNL1        0.0643
      3 C         145.1605  141.2574  156.7198 C.3     1  UNL1        0.1368
      4 C         146.1033  142.4220  156.6508 C.3     1  UNL1        0.0437
      5 C         145.6009  141.1518  155.2898 C.3     1  UNL1        0.0437
      6 O         145.0476  141.7676  158.1258 O.3     1  UNL1       -0.4676
      7 C         144.1448  141.0765  159.1042 C.ar    1  UNL1        0.2219
      8 N         144.0319  141.5867  160.5103 N.ar    1  UNL1       -0.2119
      9 C         143.1291  140.8955  161.4887 C.ar    1  UNL1        0.0851
     10 C         142.3391  139.6942  161.0610 C.ar    1  UNL1        0.0177
     11 C         142.4520  139.1840  159.6550 C.ar    1  UNL1        0.0034
     12 C         143.3549  139.8752  158.6766 C.ar    1  UNL1        0.0488
     13 C         143.0162  141.4057  162.8947 C.ar    1  UNL1        0.0284
     14 C         141.9824  142.4372  163.2375 C.ar    1  UNL1        0.0032
     15 C         141.8695  142.9474  164.6436 C.ar    1  UNL1        0.0115
     16 C         142.7903  142.4261  165.7068 C.ar    1  UNL1        0.0585
     17 CL        142.6774  142.9362  167.1128 Cl      1  UNL1       -0.0822
     18 C         143.8240  141.3947  165.3639 C.ar    1  UNL1        0.0228
     19 C         143.9369  140.8845  163.9579 C.ar    1  UNL1        0.0599
     20 CL        144.9706  139.8531  163.6150 Cl      1  UNL1       -0.0822
     21 C         141.4363  139.0031  162.0394 C.ar    1  UNL1        0.0015
     22 C         140.0132  139.4517  162.1930 C.ar    1  UNL1        0.0009
     23 C         139.1104  138.7605  163.1714 C.ar    1  UNL1        0.0114
     24 C         139.6307  137.6208  163.9962 C.ar    1  UNL1        0.0577
     25 CL        138.7279  136.9297  164.9746 Cl      1  UNL1       -0.0822
     26 C         141.0538  137.1722  163.8426 C.ar    1  UNL1        0.0114
     27 C         141.9566  137.8633  162.8643 C.ar    1  UNL1        0.0009
     28 C         143.3451  137.0623  156.0736 C.2     1  UNL1        0.2330
     29 O         144.8023  137.1623  155.7319 O.2     1  UNL1       -0.2743
     30 N         142.6778  138.1637  156.8429 N.am    1  UNL1       -0.3013
     31 H         141.7215  138.0981  157.0671 H       1  UNL1        0.1497
     32 C         141.2454  136.9361  153.5787 C.3     1  UNL1        0.0500
     33 C         141.5901  135.8030  154.4992 C.2     1  UNL1        0.0723
     34 N         141.0302  134.4129  154.4344 N.2     1  UNL1       -0.1565
     35 N         141.6493  133.6118  155.5412 N.2     1  UNL1       -0.1565
     36 C         142.5918  134.5068  156.2900 C.2     1  UNL1        0.0723
     37 C         143.4247  134.1161  157.4747 C.3     1  UNL1        0.0500
     38 C         142.5552  135.8610  155.6459 C.3     1  UNL1        0.1516
@<TRIPOS>BOND
     1    32    33    1
     2    33    34    2
     3    34    35    1
     4    35    36    2
     5    36    37    1
     6    36    38    1
     7    38    28    1
     8    28    29    2
     9    28    30   am
    10     1    30    1
    11     1     2    1
    12     2     3    1
    13     3     4    1
    14     3     5    1
    15     3     6    1
    16     6     7    1
    17     7     8   ar
    18     8     9   ar
    19     9    13    1
    20    13    14   ar
    21    14    15   ar
    22    15    16   ar
    23    16    17    1
    24    16    18   ar
    25    18    19   ar
    26    19    20    1
    27     9    10   ar
    28    10    21    1
    29    21    22   ar
    30    22    23   ar
    31    23    24   ar
    32    24    25    1
    33    24    26   ar
    34    26    27   ar
    35    10    11   ar
    36    11    12   ar
    37    38    33    1
    38    12     1    1
    39    12     7   ar
    40    19    13   ar
    41    27    21   ar
    42    30    31    1
