@<TRIPOS>MOLECULE
*****
 46 50 0 0 0
SMALL
GASTEIGER

@<TRIPOS>ATOM
      1 N         140.7326  139.6457  162.8615 N.am    1  UNL1       -0.2523
      2 C         141.0290  138.2553  163.3401 C.2     1  UNL1        0.2342
      3 O         140.7586  137.0811  162.4467 O.2     1  UNL1       -0.2742
      4 C         141.5957  138.0392  164.7120 C.3     1  UNL1        0.1118
      5 C         141.8661  139.2135  165.6054 C.ar    1  UNL1       -0.0119
      6 C         142.4328  138.9974  166.9772 C.ar    1  UNL1        0.0360
      7 C         142.7031  140.1716  167.8705 C.ar    1  UNL1        0.1721
      8 C         142.4067  141.5620  167.3920 C.ar    1  UNL1        0.1718
      9 C         141.8400  141.7781  166.0201 C.ar    1  UNL1        0.0374
     10 C         141.5696  140.6039  165.1268 C.ar    1  UNL1       -0.0000
     11 C         141.0029  140.8199  163.7548 C.3     1  UNL1        0.1245
     12 C         140.7065  142.2103  163.2763 C.ar    1  UNL1        0.0003
     13 C         139.3561  142.8159  163.5213 C.ar    1  UNL1       -0.0015
     14 C         139.0597  144.2063  163.0427 C.ar    1  UNL1        0.0111
     15 C         140.1136  144.9910  162.3192 C.ar    1  UNL1        0.0577
     16 CL        139.8172  146.3814  161.8406 Cl      1  UNL1       -0.0822
     17 C         141.4639  144.3854  162.0742 C.ar    1  UNL1        0.0111
     18 C         141.7603  142.9951  162.5528 C.ar    1  UNL1       -0.0015
     19 C         139.0324  140.2939  158.7458 C.ar    1  UNL1        0.0480
     20 C         138.1133  140.0817  159.9121 C.ar    1  UNL1        0.0158
     21 C         138.6800  139.8656  161.2840 C.ar    1  UNL1        0.0162
     22 C         140.1658  139.8618  161.4896 C.ar    1  UNL1        0.0545
     23 C         141.0849  140.0740  160.3233 C.ar    1  UNL1        0.0162
     24 C         140.5182  140.2901  158.9514 C.ar    1  UNL1        0.0158
     25 N         138.4657  140.5100  157.3739 N.pl3   1  UNL1       -0.3058
     26 C         138.9241  139.6551  156.2298 C.3     1  UNL1        0.1122
     27 C         137.4405  141.5810  157.1460 C.3     1  UNL1        0.0908
     28 C         138.6219  145.4394  155.1544 C.3     1  UNL1        0.0716
     29 C         139.5483  144.7892  156.1387 C.3     1  UNL1        0.0196
     30 C         139.1545  143.5030  156.8027 C.3     1  UNL1        0.0034
     31 C         137.8343  142.8671  156.4822 C.3     1  UNL1        0.0199
     32 C         136.9079  143.5174  155.4978 C.3     1  UNL1        0.0034
     33 C         137.3017  144.8035  154.8339 C.3     1  UNL1        0.0196
     34 C         139.1108  147.9872  155.2964 C.2     1  UNL1        0.2224
     35 O         138.8122  147.9625  156.7662 O.2     1  UNL1       -0.2751
     36 N         139.0157  146.7256  154.4905 N.am    1  UNL1       -0.3060
     37 H         139.2117  146.7418  153.5258 H       1  UNL1        0.1494
     38 C         138.8597  150.5614  155.0508 C.3     1  UNL1        0.0101
     39 C         139.5046  149.2733  154.6325 C.3     1  UNL1        0.0851
     40 O         143.2699  139.9555  169.2425 O.3     1  UNL1       -0.4684
     41 C         142.4823  139.1954  170.2681 C.3     1  UNL1        0.2526
     42 O         142.6770  142.7362  168.2853 O.3     1  UNL1       -0.4761
     43 C         141.8779  142.9230  169.5409 C.3     1  UNL1        0.1662
     44 C         142.5769  143.1635  170.8461 C.3     1  UNL1        0.0472
     45 C         140.3796  142.8693  169.4913 C.3     1  UNL1        0.0435
     46 C         139.6583  141.6324  169.9382 C.3     1  UNL1        0.0038
@<TRIPOS>BOND
     1    38    39    1
     2    39    34    1
     3    34    35    2
     4    34    36   am
     5    28    36    1
     6    28    29    1
     7    29    30    1
     8    30    31    1
     9    31    27    1
    10    27    25    1
    11    25    26    1
    12    25    19    1
    13    19    20   ar
    14    20    21   ar
    15    21    22   ar
    16    22     1    1
    17     1     2   am
    18     2     3    2
    19     2     4    1
    20     4     5    1
    21     5     6   ar
    22     6     7   ar
    23     7    40    1
    24    40    41    1
    25     7     8   ar
    26     8    42    1
    27    42    43    1
    28    43    44    1
    29    43    45    1
    30    45    46    1
    31     8     9   ar
    32     9    10   ar
    33    10    11    1
    34    11    12    1
    35    12    13   ar
    36    13    14   ar
    37    14    15   ar
    38    15    16    1
    39    15    17   ar
    40    17    18   ar
    41    22    23   ar
    42    23    24   ar
    43    31    32    1
    44    32    33    1
    45    33    28    1
    46    24    19   ar
    47    11     1    1
    48    18    12   ar
    49    10     5   ar
    50    36    37    1
@<TRIPOS>MOLECULE
*****
 46 50 0 0 0
SMALL
GASTEIGER

@<TRIPOS>ATOM
      1 N         139.8537  139.8881  163.7213 N.am    1  UNL1       -0.2523
      2 C         138.9403  138.7430  164.0445 C.2     1  UNL1        0.2342
      3 O         138.4839  137.8174  162.9559 O.2     1  UNL1       -0.2742
      4 C         138.4833  138.5235  165.4562 C.3     1  UNL1        0.1118
      5 C         138.9398  139.4491  166.5448 C.ar    1  UNL1       -0.0119
      6 C         138.4828  139.2297  167.9565 C.ar    1  UNL1        0.0360
      7 C         138.9393  140.1553  169.0450 C.ar    1  UNL1        0.1721
      8 C         139.8527  141.3004  168.7218 C.ar    1  UNL1        0.1718
      9 C         140.3097  141.5198  167.3101 C.ar    1  UNL1        0.0374
     10 C         139.8532  140.5942  166.2216 C.ar    1  UNL1       -0.0000
     11 C         140.3102  140.8137  164.8098 C.3     1  UNL1        0.1245
     12 C         141.2236  141.9588  164.4866 C.ar    1  UNL1        0.0003
     13 C         142.7097  141.7546  164.4824 C.ar    1  UNL1       -0.0015
     14 C         143.6231  142.8997  164.1592 C.ar    1  UNL1        0.0111
     15 C         143.0504  144.2489  163.8401 C.ar    1  UNL1        0.0577
     16 CL        143.9638  145.3940  163.5169 Cl      1  UNL1       -0.0822
     17 C         141.5644  144.4530  163.8443 C.ar    1  UNL1        0.0111
     18 C         140.6510  143.3079  164.1675 C.ar    1  UNL1       -0.0015
     19 C         141.2245  140.5465  159.4860 C.ar    1  UNL1        0.0480
     20 C         141.9959  139.6315  160.3903 C.ar    1  UNL1        0.0158
     21 C         141.5390  139.4120  161.8021 C.ar    1  UNL1        0.0162
     22 C         140.3107  140.1075  162.3095 C.ar    1  UNL1        0.0545
     23 C         139.5393  141.0225  161.4052 C.ar    1  UNL1        0.0162
     24 C         139.9961  141.2419  159.9934 C.ar    1  UNL1        0.0158
     25 N         141.6814  140.7659  158.0742 N.pl3   1  UNL1       -0.3058
     26 C         141.3733  139.7453  157.0190 C.3     1  UNL1        0.1122
     27 C         142.4464  142.0059  157.7177 C.3     1  UNL1        0.0908
     28 C         140.2671  145.8940  157.0985 C.3     1  UNL1        0.0716
     29 C         139.6182  144.5998  156.7063 C.3     1  UNL1        0.0196
     30 C         140.3446  143.3037  156.9127 C.3     1  UNL1        0.0034
     31 C         141.7200  143.3019  157.5113 C.3     1  UNL1        0.0199
     32 C         142.3689  144.5962  157.9036 C.3     1  UNL1        0.0034
     33 C         141.6425  145.8922  157.6972 C.3     1  UNL1        0.0196
     34 C         139.4976  147.8170  155.5301 C.2     1  UNL1        0.2224
     35 O         140.1809  147.1479  154.3745 O.2     1  UNL1       -0.2751
     36 N         139.5407  147.1901  156.8922 N.am    1  UNL1       -0.3060
     37 H         139.0922  147.6292  157.6506 H       1  UNL1        0.1494
     38 C         138.4073  149.9651  156.5034 C.3     1  UNL1        0.0101
     39 C         138.7712  149.1131  155.3237 C.3     1  UNL1        0.0851
     40 O         138.4823  139.9358  170.4568 O.3     1  UNL1       -0.4684
     41 C         137.1697  139.2608  170.7239 C.3     1  UNL1        0.2526
     42 O         140.3091  142.2260  169.8104 O.3     1  UNL1       -0.4761
     43 C         141.6213  141.9871  170.4967 C.3     1  UNL1        0.1662
     44 C         141.8150  140.7610  171.3387 C.3     1  UNL1        0.0472
     45 C         142.7398  142.9744  170.3411 C.3     1  UNL1        0.0435
     46 C         144.0304  142.5515  169.7042 C.3     1  UNL1        0.0038
@<TRIPOS>BOND
     1    38    39    1
     2    39    34    1
     3    34    35    2
     4    34    36   am
     5    28    36    1
     6    28    29    1
     7    29    30    1
     8    30    31    1
     9    31    27    1
    10    27    25    1
    11    25    26    1
    12    25    19    1
    13    19    20   ar
    14    20    21   ar
    15    21    22   ar
    16    22     1    1
    17     1     2   am
    18     2     3    2
    19     2     4    1
    20     4     5    1
    21     5     6   ar
    22     6     7   ar
    23     7    40    1
    24    40    41    1
    25     7     8   ar
    26     8    42    1
    27    42    43    1
    28    43    44    1
    29    43    45    1
    30    45    46    1
    31     8     9   ar
    32     9    10   ar
    33    10    11    1
    34    11    12    1
    35    12    13   ar
    36    13    14   ar
    37    14    15   ar
    38    15    16    1
    39    15    17   ar
    40    17    18   ar
    41    22    23   ar
    42    23    24   ar
    43    31    32    1
    44    32    33    1
    45    33    28    1
    46    24    19   ar
    47    11     1    1
    48    18    12   ar
    49    10     5   ar
    50    36    37    1
@<TRIPOS>MOLECULE
*****
 46 50 0 0 0
SMALL
GASTEIGER

@<TRIPOS>ATOM
      1 N         139.9684  139.4674  164.3720 N.am    1  UNL1       -0.2523
      2 C         138.9299  138.3978  164.5379 C.2     1  UNL1        0.2342
      3 O         138.5706  137.5152  163.3794 O.2     1  UNL1       -0.2742
      4 C         138.2508  138.2107  165.8622 C.3     1  UNL1        0.1118
      5 C         138.6101  139.0932  167.0207 C.ar    1  UNL1       -0.0119
      6 C         137.9310  138.9062  168.3449 C.ar    1  UNL1        0.0360
      7 C         138.2904  139.7887  169.5033 C.ar    1  UNL1        0.1721
      8 C         139.3288  140.8583  169.3375 C.ar    1  UNL1        0.1718
      9 C         140.0080  141.0454  168.0132 C.ar    1  UNL1        0.0374
     10 C         139.6486  140.1628  166.8548 C.ar    1  UNL1       -0.0000
     11 C         140.3278  140.3499  165.5305 C.3     1  UNL1        0.1245
     12 C         141.3663  141.4195  165.3646 C.ar    1  UNL1        0.0003
     13 C         142.7952  141.1397  165.7251 C.ar    1  UNL1       -0.0015
     14 C         143.8337  142.2093  165.5592 C.ar    1  UNL1        0.0111
     15 C         143.4432  143.5587  165.0329 C.ar    1  UNL1        0.0577
     16 CL        144.4817  144.6283  164.8670 Cl      1  UNL1       -0.0822
     17 C         142.0143  143.8383  164.6725 C.ar    1  UNL1        0.0111
     18 C         140.9758  142.7687  164.8383 C.ar    1  UNL1       -0.0015
     19 C         142.0059  140.0284  160.3991 C.ar    1  UNL1        0.0480
     20 C         140.7008  140.7140  160.6762 C.ar    1  UNL1        0.0158
     21 C         140.0216  140.5269  162.0004 C.ar    1  UNL1        0.0162
     22 C         140.6476  139.6544  163.0477 C.ar    1  UNL1        0.0545
     23 C         141.9527  138.9688  162.7707 C.ar    1  UNL1        0.0162
     24 C         142.6318  139.1558  161.4464 C.ar    1  UNL1        0.0158
     25 N         142.6850  140.2154  159.0748 N.pl3   1  UNL1       -0.3058
     26 C         142.5082  139.1942  157.9904 C.3     1  UNL1        0.1122
     27 C         143.5410  141.4236  158.8349 C.3     1  UNL1        0.0908
     28 C         141.6818  145.2351  157.3294 C.3     1  UNL1        0.0716
     29 C         142.3316  144.2862  156.3664 C.3     1  UNL1        0.0196
     30 C         142.9514  143.0157  156.8682 C.3     1  UNL1        0.0034
     31 C         142.9212  142.6941  158.3330 C.3     1  UNL1        0.0199
     32 C         142.2713  143.6430  159.2960 C.3     1  UNL1        0.0034
     33 C         141.6516  144.9134  158.7942 C.3     1  UNL1        0.0196
     34 C         139.7154  146.4735  156.1676 C.2     1  UNL1        0.2224
     35 O         138.9886  145.1709  156.0093 O.2     1  UNL1       -0.2751
     36 N         141.0620  146.5056  156.8276 N.am    1  UNL1       -0.3060
     37 H         141.5390  147.3605  156.9315 H       1  UNL1        0.1494
     38 C         139.6293  148.4006  154.4273 C.3     1  UNL1        0.0101
     39 C         139.0956  147.7439  155.6658 C.3     1  UNL1        0.0851
     40 O         137.6112  139.6016  170.8277 O.3     1  UNL1       -0.4684
     41 C         136.5014  138.6022  170.9669 C.3     1  UNL1        0.2526
     42 O         139.6882  141.7408  170.4960 O.3     1  UNL1       -0.4761
     43 C         140.8034  142.7352  170.3637 C.3     1  UNL1        0.1662
     44 C         140.4990  144.1613  170.0126 C.3     1  UNL1        0.0472
     45 C         142.2232  142.3033  170.5825 C.3     1  UNL1        0.0435
     46 C         143.2204  142.4116  169.4672 C.3     1  UNL1        0.0038
@<TRIPOS>BOND
     1    38    39    1
     2    39    34    1
     3    34    35    2
     4    34    36   am
     5    28    36    1
     6    28    29    1
     7    29    30    1
     8    30    31    1
     9    31    27    1
    10    27    25    1
    11    25    26    1
    12    25    19    1
    13    19    20   ar
    14    20    21   ar
    15    21    22   ar
    16    22     1    1
    17     1     2   am
    18     2     3    2
    19     2     4    1
    20     4     5    1
    21     5     6   ar
    22     6     7   ar
    23     7    40    1
    24    40    41    1
    25     7     8   ar
    26     8    42    1
    27    42    43    1
    28    43    44    1
    29    43    45    1
    30    45    46    1
    31     8     9   ar
    32     9    10   ar
    33    10    11    1
    34    11    12    1
    35    12    13   ar
    36    13    14   ar
    37    14    15   ar
    38    15    16    1
    39    15    17   ar
    40    17    18   ar
    41    22    23   ar
    42    23    24   ar
    43    31    32    1
    44    32    33    1
    45    33    28    1
    46    24    19   ar
    47    11     1    1
    48    18    12   ar
    49    10     5   ar
    50    36    37    1
@<TRIPOS>MOLECULE
*****
 46 50 0 0 0
SMALL
GASTEIGER

@<TRIPOS>ATOM
      1 N         142.5039  143.4770  162.6782 N.am    1  UNL1       -0.2523
      2 C         143.6105  144.2022  163.3850 C.2     1  UNL1        0.2342
      3 O         144.3833  145.2710  162.6703 O.2     1  UNL1       -0.2742
      4 C         143.9444  143.8587  164.8064 C.3     1  UNL1        0.1118
      5 C         143.1716  142.7900  165.5211 C.ar    1  UNL1       -0.0119
      6 C         143.5054  142.4465  166.9425 C.ar    1  UNL1        0.0360
      7 C         142.7327  141.3778  167.6572 C.ar    1  UNL1        0.1721
      8 C         141.6261  140.6526  166.9504 C.ar    1  UNL1        0.1718
      9 C         141.2923  140.9961  165.5289 C.ar    1  UNL1        0.0374
     10 C         142.0650  142.0648  164.8143 C.ar    1  UNL1       -0.0000
     11 C         141.7312  142.4084  163.3928 C.3     1  UNL1        0.1245
     12 C         140.6246  141.6832  162.6860 C.ar    1  UNL1        0.0003
     13 C         140.9231  140.4382  161.9043 C.ar    1  UNL1       -0.0015
     14 C         139.8166  139.7130  161.1975 C.ar    1  UNL1        0.0111
     15 C         138.4114  140.2328  161.2724 C.ar    1  UNL1        0.0577
     16 CL        137.3049  139.5076  160.5656 Cl      1  UNL1       -0.0822
     17 C         138.1130  141.4777  162.0540 C.ar    1  UNL1        0.0111
     18 C         139.2196  142.2029  162.7608 C.ar    1  UNL1       -0.0015
     19 C         141.5026  144.5076  158.4138 C.ar    1  UNL1        0.0480
     20 C         140.8010  145.2083  159.5393 C.ar    1  UNL1        0.0158
     21 C         141.1348  144.8648  160.9607 C.ar    1  UNL1        0.0162
     22 C         142.1701  143.8206  161.2567 C.ar    1  UNL1        0.0545
     23 C         142.8717  143.1198  160.1311 C.ar    1  UNL1        0.0162
     24 C         142.5379  143.4633  158.7097 C.ar    1  UNL1        0.0158
     25 N         141.1688  144.8511  156.9923 N.pl3   1  UNL1       -0.3058
     26 C         141.2211  146.2783  156.5334 C.3     1  UNL1        0.1122
     27 C         140.7826  143.7675  156.0296 C.3     1  UNL1        0.0908
     28 C         136.5856  142.1442  156.0349 C.3     1  UNL1        0.0716
     29 C         137.0670  142.9749  154.8824 C.3     1  UNL1        0.0196
     30 C         138.4660  143.5160  154.8806 C.3     1  UNL1        0.0034
     31 C         139.3836  143.2265  156.0314 C.3     1  UNL1        0.0199
     32 C         138.9021  142.3958  157.1839 C.3     1  UNL1        0.0034
     33 C         137.5031  141.8547  157.1856 C.3     1  UNL1        0.0196
     34 C         134.9381  140.1652  155.6891 C.2     1  UNL1        0.2224
     35 O         136.0888  139.2685  155.3398 O.2     1  UNL1       -0.2751
     36 N         135.1865  141.6031  156.0366 N.am    1  UNL1       -0.3060
     37 H         134.4314  142.1917  156.2659 H       1  UNL1        0.1494
     38 C         133.0675  138.7681  156.8288 C.3     1  UNL1        0.0101
     39 C         133.5392  139.6241  155.6908 C.3     1  UNL1        0.0851
     40 O         143.0665  141.0343  169.0787 O.3     1  UNL1       -0.4684
     41 C         142.7127  141.9857  170.1831 C.3     1  UNL1        0.2526
     42 O         140.8533  139.5839  167.6651 O.3     1  UNL1       -0.4761
     43 C         139.4675  139.8671  168.1642 C.3     1  UNL1        0.1662
     44 C         139.2679  140.7325  169.3730 C.3     1  UNL1        0.0472
     45 C         138.2811  139.2850  167.4544 C.3     1  UNL1        0.0435
     46 C         138.1893  139.3625  165.9593 C.3     1  UNL1        0.0038
@<TRIPOS>BOND
     1    38    39    1
     2    39    34    1
     3    34    35    2
     4    34    36   am
     5    28    36    1
     6    28    29    1
     7    29    30    1
     8    30    31    1
     9    31    27    1
    10    27    25    1
    11    25    26    1
    12    25    19    1
    13    19    20   ar
    14    20    21   ar
    15    21    22   ar
    16    22     1    1
    17     1     2   am
    18     2     3    2
    19     2     4    1
    20     4     5    1
    21     5     6   ar
    22     6     7   ar
    23     7    40    1
    24    40    41    1
    25     7     8   ar
    26     8    42    1
    27    42    43    1
    28    43    44    1
    29    43    45    1
    30    45    46    1
    31     8     9   ar
    32     9    10   ar
    33    10    11    1
    34    11    12    1
    35    12    13   ar
    36    13    14   ar
    37    14    15   ar
    38    15    16    1
    39    15    17   ar
    40    17    18   ar
    41    22    23   ar
    42    23    24   ar
    43    31    32    1
    44    32    33    1
    45    33    28    1
    46    24    19   ar
    47    11     1    1
    48    18    12   ar
    49    10     5   ar
    50    36    37    1
@<TRIPOS>MOLECULE
*****
 46 50 0 0 0
SMALL
GASTEIGER

@<TRIPOS>ATOM
      1 N         139.9123  139.7611  163.6794 N.am    1  UNL1       -0.2523
      2 C         138.9926  138.6220  164.0057 C.2     1  UNL1        0.2342
      3 O         138.5491  137.6824  162.9237 O.2     1  UNL1       -0.2742
      4 C         138.5163  138.4225  165.4140 C.3     1  UNL1        0.1118
      5 C         138.9597  139.3620  166.4960 C.ar    1  UNL1       -0.0119
      6 C         138.4834  139.1625  167.9043 C.ar    1  UNL1        0.0360
      7 C         138.9269  140.1020  168.9862 C.ar    1  UNL1        0.1721
      8 C         139.8467  141.2411  168.6598 C.ar    1  UNL1        0.1718
      9 C         140.3230  141.4407  167.2515 C.ar    1  UNL1        0.0374
     10 C         139.8795  140.5011  166.1696 C.ar    1  UNL1       -0.0000
     11 C         140.3558  140.7006  164.7612 C.3     1  UNL1        0.1245
     12 C         141.2756  141.8397  164.4349 C.ar    1  UNL1        0.0003
     13 C         140.7094  143.1817  164.0762 C.ar    1  UNL1       -0.0015
     14 C         141.6292  144.3208  163.7498 C.ar    1  UNL1        0.0111
     15 C         143.1151  144.1179  163.7821 C.ar    1  UNL1        0.0577
     16 CL        144.0348  145.2570  163.4557 Cl      1  UNL1       -0.0822
     17 C         143.6812  142.7759  164.1408 C.ar    1  UNL1        0.0111
     18 C         142.7614  141.6369  164.4672 C.ar    1  UNL1       -0.0015
     19 C         141.3411  140.3597  159.4544 C.ar    1  UNL1        0.0480
     20 C         142.1014  139.4596  160.3828 C.ar    1  UNL1        0.0158
     21 C         141.6251  139.2601  161.7911 C.ar    1  UNL1        0.0162
     22 C         140.3886  139.9606  162.2710 C.ar    1  UNL1        0.0545
     23 C         139.6284  140.8606  161.3426 C.ar    1  UNL1        0.0162
     24 C         140.1046  141.0602  159.9343 C.ar    1  UNL1        0.0158
     25 N         141.8174  140.5592  158.0460 N.pl3   1  UNL1       -0.3058
     26 C         142.9044  141.5512  157.7554 C.3     1  UNL1        0.1122
     27 C         141.2068  139.7667  156.9284 C.3     1  UNL1        0.0908
     28 C         142.9336  135.7670  155.8014 C.3     1  UNL1        0.0716
     29 C         141.4706  135.8928  156.1077 C.3     1  UNL1        0.0196
     30 C         140.8950  137.2261  156.4834 C.3     1  UNL1        0.0034
     31 C         141.7823  138.4335  156.5528 C.3     1  UNL1        0.0199
     32 C         143.2454  138.3076  156.2464 C.3     1  UNL1        0.0034
     33 C         143.8209  136.9744  155.8707 C.3     1  UNL1        0.0196
     34 C         143.9955  133.4990  156.4934 C.2     1  UNL1        0.2224
     35 O         143.9062  133.8976  157.9367 O.2     1  UNL1       -0.2751
     36 N         143.5092  134.4337  155.4257 N.am    1  UNL1       -0.3060
     37 H         143.5679  134.1721  154.4784 H       1  UNL1        0.1494
     38 C         144.6945  131.0845  157.1499 C.3     1  UNL1        0.0101
     39 C         144.5712  132.1658  156.1177 C.3     1  UNL1        0.0851
     40 O         138.4506  139.9025  170.3945 O.3     1  UNL1       -0.4684
     41 C         137.1569  139.1893  170.6548 C.3     1  UNL1        0.2526
     42 O         140.2901  142.1807  169.7418 O.3     1  UNL1       -0.4761
     43 C         141.6508  142.0299  170.3548 C.3     1  UNL1        0.1662
     44 C         142.6245  143.1699  170.3093 C.3     1  UNL1        0.0472
     45 C         142.0377  140.7389  171.0135 C.3     1  UNL1        0.0435
     46 C         142.6151  139.6227  170.1945 C.3     1  UNL1        0.0038
@<TRIPOS>BOND
     1    38    39    1
     2    39    34    1
     3    34    35    2
     4    34    36   am
     5    28    36    1
     6    28    29    1
     7    29    30    1
     8    30    31    1
     9    31    27    1
    10    27    25    1
    11    25    26    1
    12    25    19    1
    13    19    20   ar
    14    20    21   ar
    15    21    22   ar
    16    22     1    1
    17     1     2   am
    18     2     3    2
    19     2     4    1
    20     4     5    1
    21     5     6   ar
    22     6     7   ar
    23     7    40    1
    24    40    41    1
    25     7     8   ar
    26     8    42    1
    27    42    43    1
    28    43    44    1
    29    43    45    1
    30    45    46    1
    31     8     9   ar
    32     9    10   ar
    33    10    11    1
    34    11    12    1
    35    12    13   ar
    36    13    14   ar
    37    14    15   ar
    38    15    16    1
    39    15    17   ar
    40    17    18   ar
    41    22    23   ar
    42    23    24   ar
    43    31    32    1
    44    32    33    1
    45    33    28    1
    46    24    19   ar
    47    11     1    1
    48    18    12   ar
    49    10     5   ar
    50    36    37    1
@<TRIPOS>MOLECULE
*****
 46 50 0 0 0
SMALL
GASTEIGER

@<TRIPOS>ATOM
      1 N         139.9272  140.0276  158.0403 N.am    1  UNL1       -0.2523
      2 C         139.1332  140.0574  156.7681 C.2     1  UNL1        0.2342
      3 O         138.0117  141.0405  156.6067 O.2     1  UNL1       -0.2742
      4 C         139.4605  139.1041  155.6572 C.3     1  UNL1        0.1118
      5 C         140.5819  138.1210  155.8186 C.ar    1  UNL1       -0.0119
      6 C         140.9093  137.1677  154.7078 C.ar    1  UNL1        0.0360
      7 C         142.0307  136.1846  154.8692 C.ar    1  UNL1        0.1721
      8 C         142.8247  136.1549  156.1414 C.ar    1  UNL1        0.1718
      9 C         142.4973  137.1082  157.2523 C.ar    1  UNL1        0.0374
     10 C         141.3760  138.0912  157.0909 C.ar    1  UNL1       -0.0000
     11 C         141.0486  139.0446  158.2017 C.3     1  UNL1        0.1245
     12 C         141.8426  139.0148  159.4740 C.ar    1  UNL1        0.0003
     13 C         141.3650  138.1968  160.6372 C.ar    1  UNL1       -0.0015
     14 C         142.1591  138.1671  161.9094 C.ar    1  UNL1        0.0111
     15 C         143.4306  138.9553  162.0185 C.ar    1  UNL1        0.0577
     16 CL        144.2246  138.9256  163.2908 Cl      1  UNL1       -0.0822
     17 C         143.9081  139.7733  160.8554 C.ar    1  UNL1        0.0111
     18 C         143.1141  139.8031  159.5831 C.ar    1  UNL1       -0.0015
     19 C         138.9451  142.8877  161.3728 C.ar    1  UNL1        0.0480
     20 C         138.2070  141.5868  161.2590 C.ar    1  UNL1        0.0158
     21 C         138.5344  140.6334  160.1482 C.ar    1  UNL1        0.0162
     22 C         139.5998  140.9810  159.1512 C.ar    1  UNL1        0.0545
     23 C         140.3378  142.2819  159.2650 C.ar    1  UNL1        0.0162
     24 C         140.0104  143.2352  160.3758 C.ar    1  UNL1        0.0158
     25 N         138.6177  143.8410  162.4837 N.pl3   1  UNL1       -0.3058
     26 C         138.9839  145.2904  162.3605 C.3     1  UNL1        0.1122
     27 C         137.9240  143.3450  163.7177 C.3     1  UNL1        0.0908
     28 C         140.2503  141.1320  166.8706 C.3     1  UNL1        0.0716
     29 C         139.2575  140.3988  166.0182 C.3     1  UNL1        0.0196
     30 C         138.4820  141.1365  164.9672 C.3     1  UNL1        0.0034
     31 C         138.6994  142.6073  164.7686 C.3     1  UNL1        0.0199
     32 C         139.6924  143.3405  165.6211 C.3     1  UNL1        0.0034
     33 C         140.4678  142.6028  166.6721 C.3     1  UNL1        0.0196
     34 C         140.4760  140.2721  169.3118 C.2     1  UNL1        0.2224
     35 O         139.1508  140.8875  169.6511 O.2     1  UNL1       -0.2751
     36 N         141.0258  140.3943  167.9216 N.am    1  UNL1       -0.3060
     37 H         141.8956  139.9904  167.6989 H       1  UNL1        0.1494
     38 C         142.5434  138.8605  170.0070 C.3     1  UNL1        0.0101
     39 C         141.2514  139.5344  170.3628 C.3     1  UNL1        0.0851
     40 O         142.3581  135.2313  153.7583 O.3     1  UNL1       -0.4684
     41 C         141.4880  135.1746  152.5377 C.3     1  UNL1        0.2526
     42 O         143.9461  135.1718  156.3028 O.3     1  UNL1       -0.4761
     43 C         143.6813  133.8244  156.9066 C.3     1  UNL1        0.1662
     44 C         142.5936  132.9541  156.3505 C.3     1  UNL1        0.0472
     45 C         144.5042  133.3475  158.0666 C.3     1  UNL1        0.0435
     46 C         145.3165  132.0925  157.9441 C.3     1  UNL1        0.0038
@<TRIPOS>BOND
     1    38    39    1
     2    39    34    1
     3    34    35    2
     4    34    36   am
     5    28    36    1
     6    28    29    1
     7    29    30    1
     8    30    31    1
     9    31    27    1
    10    27    25    1
    11    25    26    1
    12    25    19    1
    13    19    20   ar
    14    20    21   ar
    15    21    22   ar
    16    22     1    1
    17     1     2   am
    18     2     3    2
    19     2     4    1
    20     4     5    1
    21     5     6   ar
    22     6     7   ar
    23     7    40    1
    24    40    41    1
    25     7     8   ar
    26     8    42    1
    27    42    43    1
    28    43    44    1
    29    43    45    1
    30    45    46    1
    31     8     9   ar
    32     9    10   ar
    33    10    11    1
    34    11    12    1
    35    12    13   ar
    36    13    14   ar
    37    14    15   ar
    38    15    16    1
    39    15    17   ar
    40    17    18   ar
    41    22    23   ar
    42    23    24   ar
    43    31    32    1
    44    32    33    1
    45    33    28    1
    46    24    19   ar
    47    11     1    1
    48    18    12   ar
    49    10     5   ar
    50    36    37    1
@<TRIPOS>MOLECULE
*****
 46 50 0 0 0
SMALL
GASTEIGER

@<TRIPOS>ATOM
      1 N         139.5679  143.2856  158.2279 N.am    1  UNL1       -0.2523
      2 C         139.5471  144.3145  157.1366 C.2     1  UNL1        0.2342
      3 O         140.5190  145.4568  157.1641 O.2     1  UNL1       -0.2742
      4 C         138.5544  144.2012  156.0179 C.3     1  UNL1        0.1118
      5 C         137.5824  143.0590  155.9904 C.ar    1  UNL1       -0.0119
      6 C         136.5897  142.9457  154.8716 C.ar    1  UNL1        0.0360
      7 C         135.6178  141.8035  154.8442 C.ar    1  UNL1        0.1721
      8 C         135.6386  140.7746  155.9355 C.ar    1  UNL1        0.1718
      9 C         136.6314  140.8879  157.0542 C.ar    1  UNL1        0.0374
     10 C         137.6032  142.0301  157.0817 C.ar    1  UNL1       -0.0000
     11 C         138.5960  142.1434  158.2005 C.3     1  UNL1        0.1245
     12 C         138.6169  141.1145  159.2918 C.ar    1  UNL1        0.0003
     13 C         139.3380  139.8157  159.0843 C.ar    1  UNL1       -0.0015
     14 C         139.3588  138.7868  160.1756 C.ar    1  UNL1        0.0111
     15 C         138.6585  139.0567  161.4743 C.ar    1  UNL1        0.0577
     16 CL        138.6794  138.0278  162.5656 Cl      1  UNL1       -0.0822
     17 C         137.9374  140.3555  161.6818 C.ar    1  UNL1        0.0111
     18 C         137.9166  141.3844  160.5905 C.ar    1  UNL1       -0.0015
     19 C         142.5462  143.6255  161.5841 C.ar    1  UNL1        0.0480
     20 C         141.2547  144.3857  161.6476 C.ar    1  UNL1        0.0158
     21 C         140.2619  144.2724  160.5289 C.ar    1  UNL1        0.0162
     22 C         140.5607  143.3989  159.3467 C.ar    1  UNL1        0.0545
     23 C         141.8523  142.6388  159.2831 C.ar    1  UNL1        0.0162
     24 C         142.8450  142.7521  160.4018 C.ar    1  UNL1        0.0158
     25 N         143.5390  143.7389  162.7029 N.pl3   1  UNL1       -0.3058
     26 C         144.0886  145.0813  163.0847 C.3     1  UNL1        0.1122
     27 C         143.9821  142.5098  163.4398 C.3     1  UNL1        0.0908
     28 C         141.0383  140.2031  165.9423 C.3     1  UNL1        0.0716
     29 C         141.5998  139.5933  164.6922 C.3     1  UNL1        0.0196
     30 C         142.5811  140.3622  163.8580 C.3     1  UNL1        0.0034
     31 C         143.0008  141.7409  164.2739 C.3     1  UNL1        0.0199
     32 C         142.4393  142.3507  165.5241 C.3     1  UNL1        0.0034
     33 C         141.4580  141.5818  166.3583 C.3     1  UNL1        0.0196
     34 C         138.6081  139.4003  166.3896 C.2     1  UNL1        0.2224
     35 O         138.1406  140.1353  165.1684 O.2     1  UNL1       -0.2751
     36 N         140.0569  139.4342  166.7765 N.am    1  UNL1       -0.3060
     37 H         140.3638  138.9518  167.5780 H       1  UNL1        0.1494
     38 C         137.3652  137.1839  166.9304 C.3     1  UNL1        0.0101
     39 C         137.6268  138.6314  167.2237 C.3     1  UNL1        0.0851
     40 O         134.6250  141.6902  153.7254 O.3     1  UNL1       -0.4684
     41 C         134.9321  142.2923  152.3863 C.3     1  UNL1        0.2526
     42 O         134.6667  139.6324  155.9080 O.3     1  UNL1       -0.4761
     43 C         133.3749  139.7284  156.6644 C.3     1  UNL1        0.1662
     44 C         133.1821  138.9357  157.9231 C.3     1  UNL1        0.0472
     45 C         132.2760  140.6173  156.1620 C.3     1  UNL1        0.0435
     46 C         130.8427  140.2530  156.4134 C.3     1  UNL1        0.0038
@<TRIPOS>BOND
     1    38    39    1
     2    39    34    1
     3    34    35    2
     4    34    36   am
     5    28    36    1
     6    28    29    1
     7    29    30    1
     8    30    31    1
     9    31    27    1
    10    27    25    1
    11    25    26    1
    12    25    19    1
    13    19    20   ar
    14    20    21   ar
    15    21    22   ar
    16    22     1    1
    17     1     2   am
    18     2     3    2
    19     2     4    1
    20     4     5    1
    21     5     6   ar
    22     6     7   ar
    23     7    40    1
    24    40    41    1
    25     7     8   ar
    26     8    42    1
    27    42    43    1
    28    43    44    1
    29    43    45    1
    30    45    46    1
    31     8     9   ar
    32     9    10   ar
    33    10    11    1
    34    11    12    1
    35    12    13   ar
    36    13    14   ar
    37    14    15   ar
    38    15    16    1
    39    15    17   ar
    40    17    18   ar
    41    22    23   ar
    42    23    24   ar
    43    31    32    1
    44    32    33    1
    45    33    28    1
    46    24    19   ar
    47    11     1    1
    48    18    12   ar
    49    10     5   ar
    50    36    37    1
@<TRIPOS>MOLECULE
*****
 46 50 0 0 0
SMALL
GASTEIGER

@<TRIPOS>ATOM
      1 N         139.8076  140.3919  162.8597 N.am    1  UNL1       -0.2523
      2 C         138.8459  139.2671  163.1046 C.2     1  UNL1        0.2342
      3 O         138.2366  138.5355  161.9454 O.2     1  UNL1       -0.2742
      4 C         138.4934  138.8740  164.5085 C.3     1  UNL1        0.1118
      5 C         139.1027  139.6056  165.6677 C.ar    1  UNL1       -0.0119
      6 C         138.7502  139.2124  167.0717 C.ar    1  UNL1        0.0360
      7 C         139.3595  139.9440  168.2307 C.ar    1  UNL1        0.1721
      8 C         140.3212  141.0688  167.9859 C.ar    1  UNL1        0.1718
      9 C         140.6737  141.4620  166.5819 C.ar    1  UNL1        0.0374
     10 C         140.0644  140.7304  165.4228 C.ar    1  UNL1       -0.0000
     11 C         140.4169  141.1235  164.0188 C.3     1  UNL1        0.1245
     12 C         141.3786  142.2483  163.7739 C.ar    1  UNL1        0.0003
     13 C         140.8707  143.6533  163.6384 C.ar    1  UNL1       -0.0015
     14 C         141.8324  144.7780  163.3936 C.ar    1  UNL1        0.0111
     15 C         143.3020  144.4979  163.2842 C.ar    1  UNL1        0.0577
     16 CL        144.2637  145.6226  163.0393 Cl      1  UNL1       -0.0822
     17 C         143.8098  143.0930  163.4197 C.ar    1  UNL1        0.0111
     18 C         142.8481  141.9682  163.6645 C.ar    1  UNL1       -0.0015
     19 C         140.8649  141.5714  158.6477 C.ar    1  UNL1        0.0480
     20 C         141.7204  140.5864  159.3879 C.ar    1  UNL1        0.0158
     21 C         141.3680  140.1933  160.7919 C.ar    1  UNL1        0.0162
     22 C         140.1601  140.7851  161.4557 C.ar    1  UNL1        0.0545
     23 C         139.3046  141.7701  160.7155 C.ar    1  UNL1        0.0162
     24 C         139.6570  142.1632  159.3115 C.ar    1  UNL1        0.0158
     25 N         141.2173  141.9646  157.2437 N.pl3   1  UNL1       -0.3058
     26 C         142.6467  141.9259  156.7904 C.3     1  UNL1        0.1122
     27 C         140.1405  142.3964  156.2930 C.3     1  UNL1        0.0908
     28 C         138.9524  146.7303  156.0574 C.3     1  UNL1        0.0716
     29 C         138.2229  145.7071  155.2383 C.3     1  UNL1        0.0196
     30 C         138.6190  144.2624  155.3168 C.3     1  UNL1        0.0034
     31 C         139.7444  143.8410  156.2144 C.3     1  UNL1        0.0199
     32 C         140.4739  144.8643  157.0335 C.3     1  UNL1        0.0034
     33 C         140.0779  146.3089  156.9550 C.3     1  UNL1        0.0196
     34 C         139.2662  149.0968  155.0321 C.2     1  UNL1        0.2224
     35 O         140.3720  148.5739  154.1638 O.2     1  UNL1       -0.2751
     36 N         138.5564  148.1750  155.9789 N.am    1  UNL1       -0.3060
     37 H         137.8306  148.5181  156.5487 H       1  UNL1        0.1494
     38 C         138.9790  151.4160  156.1674 C.3     1  UNL1        0.0101
     39 C         138.8703  150.5415  154.9535 C.3     1  UNL1        0.0851
     40 O         139.0070  139.5508  169.6348 O.3     1  UNL1       -0.4684
     41 C         138.0848  140.4122  170.4457 C.3     1  UNL1        0.2526
     42 O         140.9304  141.8004  169.1451 O.3     1  UNL1       -0.4761
     43 C         142.2669  141.3783  169.6795 C.3     1  UNL1        0.1662
     44 C         143.4928  142.1774  169.3499 C.3     1  UNL1        0.0472
     45 C         142.3775  140.1571  170.5436 C.3     1  UNL1        0.0435
     46 C         142.6075  138.8137  169.9174 C.3     1  UNL1        0.0038
@<TRIPOS>BOND
     1    38    39    1
     2    39    34    1
     3    34    35    2
     4    34    36   am
     5    28    36    1
     6    28    29    1
     7    29    30    1
     8    30    31    1
     9    31    27    1
    10    27    25    1
    11    25    26    1
    12    25    19    1
    13    19    20   ar
    14    20    21   ar
    15    21    22   ar
    16    22     1    1
    17     1     2   am
    18     2     3    2
    19     2     4    1
    20     4     5    1
    21     5     6   ar
    22     6     7   ar
    23     7    40    1
    24    40    41    1
    25     7     8   ar
    26     8    42    1
    27    42    43    1
    28    43    44    1
    29    43    45    1
    30    45    46    1
    31     8     9   ar
    32     9    10   ar
    33    10    11    1
    34    11    12    1
    35    12    13   ar
    36    13    14   ar
    37    14    15   ar
    38    15    16    1
    39    15    17   ar
    40    17    18   ar
    41    22    23   ar
    42    23    24   ar
    43    31    32    1
    44    32    33    1
    45    33    28    1
    46    24    19   ar
    47    11     1    1
    48    18    12   ar
    49    10     5   ar
    50    36    37    1
@<TRIPOS>MOLECULE
*****
 46 50 0 0 0
SMALL
GASTEIGER

@<TRIPOS>ATOM
      1 N         140.7559  139.7060  162.6209 N.am    1  UNL1       -0.2523
      2 C         141.0748  138.3114  163.0719 C.2     1  UNL1        0.2342
      3 O         140.8414  137.1527  162.1484 O.2     1  UNL1       -0.2742
      4 C         141.6270  138.0756  164.4464 C.3     1  UNL1        0.1118
      5 C         141.8604  139.2343  165.3700 C.ar    1  UNL1       -0.0119
      6 C         142.4127  138.9985  166.7445 C.ar    1  UNL1        0.0360
      7 C         142.6461  140.1572  167.6679 C.ar    1  UNL1        0.1721
      8 C         142.3272  141.5518  167.2169 C.ar    1  UNL1        0.1718
      9 C         141.7749  141.7876  165.8424 C.ar    1  UNL1        0.0374
     10 C         141.5415  140.6289  164.9189 C.ar    1  UNL1       -0.0000
     11 C         140.9892  140.8647  163.5443 C.3     1  UNL1        0.1245
     12 C         140.6703  142.2593  163.0933 C.ar    1  UNL1        0.0003
     13 C         139.2947  142.8194  163.3035 C.ar    1  UNL1       -0.0015
     14 C         138.9758  144.2140  162.8524 C.ar    1  UNL1        0.0111
     15 C         140.0325  145.0485  162.1912 C.ar    1  UNL1        0.0577
     16 CL        139.7136  146.4431  161.7402 Cl      1  UNL1       -0.0822
     17 C         141.4080  144.4884  161.9810 C.ar    1  UNL1        0.0111
     18 C         141.7269  143.0938  162.4321 C.ar    1  UNL1       -0.0015
     19 C         139.0991  140.4135  158.4972 C.ar    1  UNL1        0.0480
     20 C         138.1732  140.0901  159.6322 C.ar    1  UNL1        0.0158
     21 C         138.7254  139.8543  161.0067 C.ar    1  UNL1        0.0162
     22 C         140.2036  139.9418  161.2463 C.ar    1  UNL1        0.0545
     23 C         141.1295  140.2652  160.1113 C.ar    1  UNL1        0.0162
     24 C         140.5773  140.5010  158.7368 C.ar    1  UNL1        0.0158
     25 N         138.5468  140.6493  157.1226 N.pl3   1  UNL1       -0.3058
     26 C         137.1044  141.0217  156.9476 C.3     1  UNL1        0.1122
     27 C         139.4370  140.5127  155.9231 C.3     1  UNL1        0.0908
     28 C         141.2021  136.5081  154.8755 C.3     1  UNL1        0.0716
     29 C         139.7589  136.6113  155.2708 C.3     1  UNL1        0.0196
     30 C         139.1705  137.9462  155.6200 C.3     1  UNL1        0.0034
     31 C         140.0254  139.1779  155.5739 C.3     1  UNL1        0.0199
     32 C         141.4687  139.0746  155.1785 C.3     1  UNL1        0.0034
     33 C         142.0570  137.7398  154.8293 C.3     1  UNL1        0.0196
     34 C         142.5854  134.4138  155.5468 C.2     1  UNL1        0.2224
     35 O         142.7918  134.9894  156.9166 O.2     1  UNL1       -0.2751
     36 N         141.7906  135.1732  154.5262 N.am    1  UNL1       -0.3060
     37 H         141.6551  134.7955  153.6272 H       1  UNL1        0.1494
     38 C         144.2826  132.5071  156.0305 C.3     1  UNL1        0.0101
     39 C         143.1738  133.0790  155.1977 C.3     1  UNL1        0.0851
     40 O         143.1984  139.9214  169.0425 O.3     1  UNL1       -0.4684
     41 C         142.4356  139.0808  170.0232 C.3     1  UNL1        0.2526
     42 O         142.5606  142.7106  168.1405 O.3     1  UNL1       -0.4761
     43 C         141.7932  142.8119  169.4253 C.3     1  UNL1        0.1662
     44 C         142.5224  143.0135  170.7205 C.3     1  UNL1        0.0472
     45 C         140.2965  142.7117  169.4149 C.3     1  UNL1        0.0435
     46 C         139.6223  141.4967  169.9799 C.3     1  UNL1        0.0038
@<TRIPOS>BOND
     1    38    39    1
     2    39    34    1
     3    34    35    2
     4    34    36   am
     5    28    36    1
     6    28    29    1
     7    29    30    1
     8    30    31    1
     9    31    27    1
    10    27    25    1
    11    25    26    1
    12    25    19    1
    13    19    20   ar
    14    20    21   ar
    15    21    22   ar
    16    22     1    1
    17     1     2   am
    18     2     3    2
    19     2     4    1
    20     4     5    1
    21     5     6   ar
    22     6     7   ar
    23     7    40    1
    24    40    41    1
    25     7     8   ar
    26     8    42    1
    27    42    43    1
    28    43    44    1
    29    43    45    1
    30    45    46    1
    31     8     9   ar
    32     9    10   ar
    33    10    11    1
    34    11    12    1
    35    12    13   ar
    36    13    14   ar
    37    14    15   ar
    38    15    16    1
    39    15    17   ar
    40    17    18   ar
    41    22    23   ar
    42    23    24   ar
    43    31    32    1
    44    32    33    1
    45    33    28    1
    46    24    19   ar
    47    11     1    1
    48    18    12   ar
    49    10     5   ar
    50    36    37    1
