@<TRIPOS>MOLECULE
*****
 25 27 0 0 0
SMALL
GASTEIGER

@<TRIPOS>ATOM
      1 C         142.2320  139.6010  162.4524 C.ar    1  UNL1        0.2438
      2 C         143.3370  138.6428  162.7854 C.ar    1  UNL1        0.0798
      3 C         143.6592  138.7950  164.2424 C.ar    1  UNL1        0.1053
      4 N         142.7533  139.8474  164.8099 N.ar    1  UNL1       -0.2253
      5 N         141.8713  140.3455  163.7036 N.ar    1  UNL1       -0.1273
      6 C         142.7331  140.3188  166.2338 C.ar    1  UNL1        0.0838
      7 C         142.8120  141.7852  166.5395 C.ar    1  UNL1        0.0201
      8 C         142.7918  142.2566  167.9634 C.ar    1  UNL1        0.0138
      9 C         142.6926  141.2617  169.0814 C.ar    1  UNL1        0.0683
     10 CL        142.6724  141.7332  170.5053 Cl      1  UNL1       -0.0814
     11 C         142.6137  139.7952  168.7757 C.ar    1  UNL1        0.0697
     12 CL        142.5145  138.8003  169.8939 Cl      1  UNL1       -0.0813
     13 C         142.6339  139.3239  167.3519 C.ar    1  UNL1        0.0314
     14 O         141.5989  139.7828  161.1047 O.3     1  UNL1       -0.4577
     15 C         140.6616  138.7411  160.5697 C.3     1  UNL1        0.2244
     16 C         139.2509  138.6712  161.0746 C.3     1  UNL1        0.1201
     17 C         138.4322  138.8462  165.4960 C.3     1  UNL1        0.0604
     18 C         139.0262  137.6086  164.8917 C.3     1  UNL1        0.0247
     19 C         139.2991  137.5502  163.4179 C.3     1  UNL1        0.0726
     20 N         138.9780  138.7296  162.5484 N.3     1  UNL1       -0.2696
     21 C         138.3840  139.9672  163.1528 C.3     1  UNL1        0.0726
     22 C         138.1111  140.0256  164.6266 C.3     1  UNL1        0.0247
     23 C         139.0176  139.7552  167.8584 C.3     1  UNL1        0.0722
     24 C         138.1593  138.9046  166.9699 C.2     1  UNL1        0.1508
     25 O         137.0281  138.1123  167.5551 O.2     1  UNL1       -0.2961
@<TRIPOS>BOND
     1    23    24    1
     2    24    25    2
     3    24    17    1
     4    17    18    1
     5    18    19    1
     6    19    20    1
     7    20    16    1
     8    16    15    1
     9    15    14    1
    10    14     1    1
    11     1     2   ar
    12     2     3   ar
    13     3     4   ar
    14     4     6    1
    15     6     7   ar
    16     7     8   ar
    17     8     9   ar
    18     9    10    1
    19     9    11   ar
    20    11    12    1
    21    11    13   ar
    22     4     5   ar
    23    20    21    1
    24    21    22    1
    25    22    17    1
    26     5     1   ar
    27    13     6   ar
@<TRIPOS>MOLECULE
*****
 25 27 0 0 0
SMALL
GASTEIGER

@<TRIPOS>ATOM
      1 C         144.8301  140.6950  164.2170 C.ar    1  UNL1        0.2438
      2 C         144.9017  139.2098  164.4145 C.ar    1  UNL1        0.0798
      3 C         143.8702  138.8274  165.4341 C.ar    1  UNL1        0.1053
      4 N         143.1610  140.0765  165.8669 N.ar    1  UNL1       -0.2253
      5 N         143.7543  141.2306  165.1146 N.ar    1  UNL1       -0.1273
      6 C         142.0531  140.1571  166.8749 C.ar    1  UNL1        0.0838
      7 C         142.2940  140.8104  168.2034 C.ar    1  UNL1        0.0201
      8 C         141.1860  140.8910  169.2114 C.ar    1  UNL1        0.0138
      9 C         139.8373  140.3183  168.8908 C.ar    1  UNL1        0.0683
     10 CL        138.7294  140.3990  169.8988 Cl      1  UNL1       -0.0814
     11 C         139.5964  139.6650  167.5621 C.ar    1  UNL1        0.0697
     12 CL        138.2476  139.0923  167.2416 Cl      1  UNL1       -0.0813
     13 C         140.7043  139.5844  166.5543 C.ar    1  UNL1        0.0314
     14 O         145.6844  141.5028  163.2854 O.3     1  UNL1       -0.4577
     15 C         145.0733  142.1484  162.0773 C.3     1  UNL1        0.2244
     16 C         144.5432  143.5490  162.1627 C.3     1  UNL1        0.1201
     17 C         140.3463  144.2817  163.6118 C.3     1  UNL1        0.0604
     18 C         140.6835  143.0014  162.9067 C.3     1  UNL1        0.0247
     19 C         142.0825  142.7572  162.4237 C.3     1  UNL1        0.0726
     20 N         143.1442  143.7932  162.6457 N.3     1  UNL1       -0.2696
     21 C         142.8070  145.0735  163.3508 C.3     1  UNL1        0.0726
     22 C         141.4080  145.3177  163.8338 C.3     1  UNL1        0.0247
     23 C         137.7802  144.1800  163.2184 C.3     1  UNL1        0.0722
     24 C         138.9474  144.5259  164.0948 C.2     1  UNL1        0.1508
     25 O         138.7156  145.1161  165.4541 O.2     1  UNL1       -0.2961
@<TRIPOS>BOND
     1    23    24    1
     2    24    25    2
     3    24    17    1
     4    17    18    1
     5    18    19    1
     6    19    20    1
     7    20    16    1
     8    16    15    1
     9    15    14    1
    10    14     1    1
    11     1     2   ar
    12     2     3   ar
    13     3     4   ar
    14     4     6    1
    15     6     7   ar
    16     7     8   ar
    17     8     9   ar
    18     9    10    1
    19     9    11   ar
    20    11    12    1
    21    11    13   ar
    22     4     5   ar
    23    20    21    1
    24    21    22    1
    25    22    17    1
    26     5     1   ar
    27    13     6   ar
@<TRIPOS>MOLECULE
*****
 25 27 0 0 0
SMALL
GASTEIGER

@<TRIPOS>ATOM
      1 C         140.3550  137.8912  163.8145 C.ar    1  UNL1        0.2438
      2 C         138.8811  138.1482  163.9224 C.ar    1  UNL1        0.0798
      3 C         138.6395  138.9449  165.1701 C.ar    1  UNL1        0.1053
      4 N         139.9642  139.1804  165.8334 N.ar    1  UNL1       -0.2253
      5 N         141.0244  138.5292  164.9956 N.ar    1  UNL1       -0.1273
      6 C         140.1891  139.9347  167.1103 C.ar    1  UNL1        0.0838
      7 C         139.1895  139.8382  168.2245 C.ar    1  UNL1        0.0201
      8 C         139.4144  140.5925  169.5014 C.ar    1  UNL1        0.0138
      9 C         140.6390  141.4432  169.6641 C.ar    1  UNL1        0.0683
     10 CL        140.8640  142.1975  170.9410 Cl      1  UNL1       -0.0814
     11 C         141.6388  141.5397  168.5499 C.ar    1  UNL1        0.0697
     12 CL        142.8633  142.3905  168.7126 Cl      1  UNL1       -0.0813
     13 C         141.4137  140.7855  167.2731 C.ar    1  UNL1        0.0314
     14 O         141.0393  137.1300  162.7180 O.3     1  UNL1       -0.4577
     15 C         141.9594  137.8425  161.7716 C.3     1  UNL1        0.2244
     16 C         143.3249  138.2639  162.2277 C.3     1  UNL1        0.1201
     17 C         143.9339  142.3369  164.0413 C.3     1  UNL1        0.0604
     18 C         144.9238  141.2418  164.3074 C.3     1  UNL1        0.0247
     19 C         144.7208  139.8841  163.7028 C.3     1  UNL1        0.0726
     20 N         143.5279  139.6215  162.8322 N.3     1  UNL1       -0.2696
     21 C         142.5380  140.7167  162.5661 C.3     1  UNL1        0.0726
     22 C         142.7411  142.0743  163.1707 C.3     1  UNL1        0.0247
     23 C         143.6383  144.9158  163.9318 C.3     1  UNL1        0.0722
     24 C         144.1370  143.6946  164.6459 C.2     1  UNL1        0.1508
     25 O         144.8387  143.8311  165.9645 O.2     1  UNL1       -0.2961
@<TRIPOS>BOND
     1    23    24    1
     2    24    25    2
     3    24    17    1
     4    17    18    1
     5    18    19    1
     6    19    20    1
     7    20    16    1
     8    16    15    1
     9    15    14    1
    10    14     1    1
    11     1     2   ar
    12     2     3   ar
    13     3     4   ar
    14     4     6    1
    15     6     7   ar
    16     7     8   ar
    17     8     9   ar
    18     9    10    1
    19     9    11   ar
    20    11    12    1
    21    11    13   ar
    22     4     5   ar
    23    20    21    1
    24    21    22    1
    25    22    17    1
    26     5     1   ar
    27    13     6   ar
@<TRIPOS>MOLECULE
*****
 25 27 0 0 0
SMALL
GASTEIGER

@<TRIPOS>ATOM
      1 C         141.6397  140.9365  162.6292 C.ar    1  UNL1        0.2438
      2 C         141.3956  142.4159  162.6722 C.ar    1  UNL1        0.0798
      3 C         141.3988  142.8446  164.1097 C.ar    1  UNL1        0.1053
      4 N         141.6448  141.6301  164.9550 N.ar    1  UNL1       -0.2253
      5 N         141.7937  140.4509  164.0400 N.ar    1  UNL1       -0.1273
      6 C         141.7274  141.6001  166.4524 C.ar    1  UNL1        0.0838
      7 C         142.5144  140.5233  167.1387 C.ar    1  UNL1        0.0201
      8 C         142.5971  140.4934  168.6362 C.ar    1  UNL1        0.0138
      9 C         141.8926  141.5402  169.4472 C.ar    1  UNL1        0.0683
     10 CL        141.9753  141.5102  170.9446 Cl      1  UNL1       -0.0814
     11 C         141.1056  142.6171  168.7609 C.ar    1  UNL1        0.0697
     12 CL        140.4011  143.6639  169.5720 Cl      1  UNL1       -0.0813
     13 C         141.0230  142.6470  167.2635 C.ar    1  UNL1        0.0314
     14 O         141.7163  140.0912  161.3923 O.3     1  UNL1       -0.4577
     15 C         140.4706  139.7849  160.6149 C.3     1  UNL1        0.2244
     16 C         139.4736  138.8017  161.1527 C.3     1  UNL1        0.1201
     17 C         138.4449  138.8083  165.5335 C.3     1  UNL1        0.0604
     18 C         138.0399  139.9632  164.6663 C.3     1  UNL1        0.0247
     19 C         138.3828  139.9610  163.2060 C.3     1  UNL1        0.0726
     20 N         139.1307  138.8039  162.6130 N.3     1  UNL1       -0.2696
     21 C         139.5357  137.6491  163.4802 C.3     1  UNL1        0.0726
     22 C         139.1928  137.6513  164.9405 C.3     1  UNL1        0.0247
     23 C         138.8792  139.6710  167.9454 C.3     1  UNL1        0.0722
     24 C         138.1020  138.8105  166.9938 C.2     1  UNL1        0.1508
     25 O         136.9819  137.9523  167.5025 O.2     1  UNL1       -0.2961
@<TRIPOS>BOND
     1    23    24    1
     2    24    25    2
     3    24    17    1
     4    17    18    1
     5    18    19    1
     6    19    20    1
     7    20    16    1
     8    16    15    1
     9    15    14    1
    10    14     1    1
    11     1     2   ar
    12     2     3   ar
    13     3     4   ar
    14     4     6    1
    15     6     7   ar
    16     7     8   ar
    17     8     9   ar
    18     9    10    1
    19     9    11   ar
    20    11    12    1
    21    11    13   ar
    22     4     5   ar
    23    20    21    1
    24    21    22    1
    25    22    17    1
    26     5     1   ar
    27    13     6   ar
@<TRIPOS>MOLECULE
*****
 25 27 0 0 0
SMALL
GASTEIGER

@<TRIPOS>ATOM
      1 C         143.8988  139.9591  163.3111 C.ar    1  UNL1        0.2438
      2 C         143.1257  138.6989  163.0579 C.ar    1  UNL1        0.0798
      3 C         142.2531  138.4428  164.2508 C.ar    1  UNL1        0.1053
      4 N         142.4870  139.5448  165.2413 N.ar    1  UNL1       -0.2253
      5 N         143.5040  140.4819  164.6605 N.ar    1  UNL1       -0.1273
      6 C         141.8207  139.6851  166.5779 C.ar    1  UNL1        0.0838
      7 C         140.3360  139.8829  166.6587 C.ar    1  UNL1        0.0201
      8 C         139.6697  140.0231  167.9953 C.ar    1  UNL1        0.0138
      9 C         140.4882  139.9655  169.2509 C.ar    1  UNL1        0.0683
     10 CL        139.8219  140.1058  170.5875 Cl      1  UNL1       -0.0814
     11 C         141.9730  139.7677  169.1701 C.ar    1  UNL1        0.0697
     12 CL        142.7914  139.7102  170.4259 Cl      1  UNL1       -0.0813
     13 C         142.6391  139.6275  167.8336 C.ar    1  UNL1        0.0314
     14 O         144.8923  140.5864  162.3785 O.3     1  UNL1       -0.4577
     15 C         145.2764  142.0263  162.5499 C.3     1  UNL1        0.2244
     16 C         144.5118  143.0973  161.8302 C.3     1  UNL1        0.1201
     17 C         140.3890  144.2418  163.2243 C.3     1  UNL1        0.0604
     18 C         141.5655  145.1036  163.5750 C.3     1  UNL1        0.0247
     19 C         142.9398  144.7222  163.1103 C.3     1  UNL1        0.0726
     20 N         143.1375  143.4788  162.2949 N.3     1  UNL1       -0.2696
     21 C         141.9610  142.6169  161.9442 C.3     1  UNL1        0.0726
     22 C         140.5868  142.9984  162.4089 C.3     1  UNL1        0.0247
     23 C         138.7517  144.8462  165.1488 C.3     1  UNL1        0.0722
     24 C         139.0148  144.6233  163.6890 C.2     1  UNL1        0.1508
     25 O         137.9037  144.7818  162.6939 O.2     1  UNL1       -0.2961
@<TRIPOS>BOND
     1    23    24    1
     2    24    25    2
     3    24    17    1
     4    17    18    1
     5    18    19    1
     6    19    20    1
     7    20    16    1
     8    16    15    1
     9    15    14    1
    10    14     1    1
    11     1     2   ar
    12     2     3   ar
    13     3     4   ar
    14     4     6    1
    15     6     7   ar
    16     7     8   ar
    17     8     9   ar
    18     9    10    1
    19     9    11   ar
    20    11    12    1
    21    11    13   ar
    22     4     5   ar
    23    20    21    1
    24    21    22    1
    25    22    17    1
    26     5     1   ar
    27    13     6   ar
@<TRIPOS>MOLECULE
*****
 25 27 0 0 0
SMALL
GASTEIGER

@<TRIPOS>ATOM
      1 C         141.1543  138.0767  163.0339 C.ar    1  UNL1        0.2438
      2 C         142.6176  138.1307  162.7087 C.ar    1  UNL1        0.0798
      3 C         143.3094  138.8810  163.8079 C.ar    1  UNL1        0.1053
      4 N         142.2736  139.2908  164.8125 N.ar    1  UNL1       -0.2253
      5 N         140.9417  138.7937  164.3342 N.ar    1  UNL1       -0.1273
      6 C         142.5255  140.0623  166.0741 C.ar    1  UNL1        0.0838
      7 C         142.9000  141.5130  166.0039 C.ar    1  UNL1        0.0201
      8 C         143.1520  142.2845  167.2654 C.ar    1  UNL1        0.0138
      9 C         143.0294  141.6051  168.5970 C.ar    1  UNL1        0.0683
     10 CL        143.2813  142.3766  169.8586 Cl      1  UNL1       -0.0814
     11 C         142.6549  140.1543  168.6673 C.ar    1  UNL1        0.0697
     12 CL        142.5323  139.4749  169.9990 Cl      1  UNL1       -0.0813
     13 C         142.4030  139.3829  167.4058 C.ar    1  UNL1        0.0314
     14 O         140.0903  137.4209  162.2044 O.3     1  UNL1       -0.4577
     15 C         138.6452  137.5867  162.5707 C.3     1  UNL1        0.2244
     16 C         137.8267  138.6651  161.9247 C.3     1  UNL1        0.1201
     17 C         138.2830  142.9391  163.2569 C.3     1  UNL1        0.0604
     18 C         138.0695  142.6245  161.8059 C.3     1  UNL1        0.0247
     19 C         137.9174  141.1998  161.3619 C.3     1  UNL1        0.0726
     20 N         137.9788  140.0897  162.3688 N.3     1  UNL1       -0.2696
     21 C         138.1923  140.4044  163.8198 C.3     1  UNL1        0.0726
     22 C         138.3444  141.8290  164.2638 C.3     1  UNL1        0.0247
     23 C         138.1249  144.7448  165.1182 C.3     1  UNL1        0.0722
     24 C         138.4351  144.3638  163.7010 C.2     1  UNL1        0.1508
     25 O         138.8974  145.4074  162.7278 O.2     1  UNL1       -0.2961
@<TRIPOS>BOND
     1    23    24    1
     2    24    25    2
     3    24    17    1
     4    17    18    1
     5    18    19    1
     6    19    20    1
     7    20    16    1
     8    16    15    1
     9    15    14    1
    10    14     1    1
    11     1     2   ar
    12     2     3   ar
    13     3     4   ar
    14     4     6    1
    15     6     7   ar
    16     7     8   ar
    17     8     9   ar
    18     9    10    1
    19     9    11   ar
    20    11    12    1
    21    11    13   ar
    22     4     5   ar
    23    20    21    1
    24    21    22    1
    25    22    17    1
    26     5     1   ar
    27    13     6   ar
@<TRIPOS>MOLECULE
*****
 25 27 0 0 0
SMALL
GASTEIGER

@<TRIPOS>ATOM
      1 C         139.5886  138.0441  164.0131 C.ar    1  UNL1        0.2438
      2 C         141.0778  138.1132  163.8471 C.ar    1  UNL1        0.0798
      3 C         141.6485  138.7886  165.0588 C.ar    1  UNL1        0.1053
      4 N         140.5119  139.1369  165.9737 N.ar    1  UNL1       -0.2253
      5 N         139.2389  138.6768  165.3274 N.ar    1  UNL1       -0.1273
      6 C         140.6280  139.8246  167.3017 C.ar    1  UNL1        0.0838
      7 C         139.4179  139.9796  168.1744 C.ar    1  UNL1        0.0201
      8 C         139.5341  140.6673  169.5024 C.ar    1  UNL1        0.0138
      9 C         140.8603  141.1999  169.9577 C.ar    1  UNL1        0.0683
     10 CL        140.9764  141.8876  171.2857 Cl      1  UNL1       -0.0814
     11 C         142.0705  141.0450  169.0849 C.ar    1  UNL1        0.0697
     12 CL        143.3967  141.5777  169.5403 Cl      1  UNL1       -0.0813
     13 C         141.9542  140.3573  167.7570 C.ar    1  UNL1        0.0314
     14 O         138.6193  137.4471  163.0363 O.3     1  UNL1       -0.4577
     15 C         138.5836  137.9387  161.6196 C.3     1  UNL1        0.2244
     16 C         137.6468  139.0445  161.2328 C.3     1  UNL1        0.1201
     17 C         138.4266  143.2482  162.6365 C.3     1  UNL1        0.0604
     18 C         137.7261  142.2746  163.5371 C.3     1  UNL1        0.0247
     19 C         137.4661  140.8733  163.0692 C.3     1  UNL1        0.0726
     20 N         137.9068  140.4457  161.7007 N.3     1  UNL1       -0.2696
     21 C         138.6073  141.4194  160.8000 C.3     1  UNL1        0.0726
     22 C         138.8672  142.8206  161.2680 C.3     1  UNL1        0.0247
     23 C         138.8969  144.9261  164.5636 C.3     1  UNL1        0.0722
     24 C         138.6865  144.6495  163.1044 C.2     1  UNL1        0.1508
     25 O         138.7361  145.7742  162.1132 O.2     1  UNL1       -0.2961
@<TRIPOS>BOND
     1    23    24    1
     2    24    25    2
     3    24    17    1
     4    17    18    1
     5    18    19    1
     6    19    20    1
     7    20    16    1
     8    16    15    1
     9    15    14    1
    10    14     1    1
    11     1     2   ar
    12     2     3   ar
    13     3     4   ar
    14     4     6    1
    15     6     7   ar
    16     7     8   ar
    17     8     9   ar
    18     9    10    1
    19     9    11   ar
    20    11    12    1
    21    11    13   ar
    22     4     5   ar
    23    20    21    1
    24    21    22    1
    25    22    17    1
    26     5     1   ar
    27    13     6   ar
@<TRIPOS>MOLECULE
*****
 25 27 0 0 0
SMALL
GASTEIGER

@<TRIPOS>ATOM
      1 C         138.5066  143.1824  164.4952 C.ar    1  UNL1        0.2438
      2 C         137.8685  141.8693  164.1510 C.ar    1  UNL1        0.0798
      3 C         138.4598  140.8185  165.0433 C.ar    1  UNL1        0.1053
      4 N         139.4634  141.4824  165.9390 N.ar    1  UNL1       -0.2253
      5 N         139.4923  142.9433  165.6002 N.ar    1  UNL1       -0.1273
      6 C         140.2926  140.8042  166.9891 C.ar    1  UNL1        0.0838
      7 C         141.6373  140.2417  166.6353 C.ar    1  UNL1        0.0201
      8 C         142.4665  139.5636  167.6854 C.ar    1  UNL1        0.0138
      9 C         141.9509  139.4480  169.0892 C.ar    1  UNL1        0.0683
     10 CL        142.7800  138.7699  170.1393 Cl      1  UNL1       -0.0814
     11 C         140.6060  140.0106  169.4430 C.ar    1  UNL1        0.0697
     12 CL        140.0905  139.8951  170.8469 Cl      1  UNL1       -0.0813
     13 C         139.7770  140.6887  168.3929 C.ar    1  UNL1        0.0314
     14 O         138.2108  144.5029  163.8479 O.3     1  UNL1       -0.4577
     15 C         138.9916  144.9396  162.6439 C.3     1  UNL1        0.2244
     16 C         140.4105  145.4012  162.7971 C.3     1  UNL1        0.1201
     17 C         143.7001  142.3940  163.4182 C.3     1  UNL1        0.0604
     18 C         143.8488  143.7888  163.9497 C.3     1  UNL1        0.0247
     19 C         142.7523  144.7912  163.7426 C.3     1  UNL1        0.0726
     20 N         141.5071  144.3988  163.0042 N.3     1  UNL1       -0.2696
     21 C         141.3584  143.0040  162.4727 C.3     1  UNL1        0.0726
     22 C         142.4549  142.0017  162.6797 C.3     1  UNL1        0.0247
     23 C         144.4892  140.0612  164.2459 C.3     1  UNL1        0.0722
     24 C         144.7967  141.3917  163.6252 C.2     1  UNL1        0.1508
     25 O         146.2006  141.7197  163.2116 O.2     1  UNL1       -0.2961
@<TRIPOS>BOND
     1    23    24    1
     2    24    25    2
     3    24    17    1
     4    17    18    1
     5    18    19    1
     6    19    20    1
     7    20    16    1
     8    16    15    1
     9    15    14    1
    10    14     1    1
    11     1     2   ar
    12     2     3   ar
    13     3     4   ar
    14     4     6    1
    15     6     7   ar
    16     7     8   ar
    17     8     9   ar
    18     9    10    1
    19     9    11   ar
    20    11    12    1
    21    11    13   ar
    22     4     5   ar
    23    20    21    1
    24    21    22    1
    25    22    17    1
    26     5     1   ar
    27    13     6   ar
@<TRIPOS>MOLECULE
*****
 25 27 0 0 0
SMALL
GASTEIGER

@<TRIPOS>ATOM
      1 C         141.9797  144.7486  163.6838 C.ar    1  UNL1        0.2438
      2 C         143.4508  144.5248  163.4948 C.ar    1  UNL1        0.0798
      3 C         143.8861  143.4630  164.4608 C.ar    1  UNL1        0.1053
      4 N         142.6839  143.0306  165.2469 N.ar    1  UNL1       -0.2253
      5 N         141.5057  143.8251  164.7666 N.ar    1  UNL1       -0.1273
      6 C         142.6635  141.9869  166.3241 C.ar    1  UNL1        0.0838
      7 C         142.2420  140.5840  166.0012 C.ar    1  UNL1        0.0201
      8 C         142.2216  139.5403  167.0784 C.ar    1  UNL1        0.0138
      9 C         142.6226  139.8996  168.4783 C.ar    1  UNL1        0.0683
     10 CL        142.6022  138.8559  169.5555 Cl      1  UNL1       -0.0814
     11 C         143.0441  141.3025  168.8013 C.ar    1  UNL1        0.0697
     12 CL        143.4452  141.6617  170.2013 Cl      1  UNL1       -0.0813
     13 C         143.0645  142.3461  167.7241 C.ar    1  UNL1        0.0314
     14 O         141.1315  145.7245  162.9234 O.3     1  UNL1       -0.4577
     15 C         139.7681  145.3204  162.4461 C.3     1  UNL1        0.2244
     16 C         139.5740  144.0001  161.7613 C.3     1  UNL1        0.1201
     17 C         138.8197  140.2918  164.1964 C.3     1  UNL1        0.0604
     18 C         139.9446  140.3219  163.2047 C.3     1  UNL1        0.0247
     19 C         140.1961  141.5580  162.3930 C.3     1  UNL1        0.0726
     20 N         139.3226  142.7640  162.5730 N.3     1  UNL1       -0.2696
     21 C         138.1977  142.7340  163.5647 C.3     1  UNL1        0.0726
     22 C         137.9462  141.4979  164.3765 C.3     1  UNL1        0.0247
     23 C         139.2111  137.7582  164.6173 C.3     1  UNL1        0.0722
     24 C         138.5683  139.0558  165.0082 C.2     1  UNL1        0.1508
     25 O         137.6740  139.1173  166.2108 O.2     1  UNL1       -0.2961
@<TRIPOS>BOND
     1    23    24    1
     2    24    25    2
     3    24    17    1
     4    17    18    1
     5    18    19    1
     6    19    20    1
     7    20    16    1
     8    16    15    1
     9    15    14    1
    10    14     1    1
    11     1     2   ar
    12     2     3   ar
    13     3     4   ar
    14     4     6    1
    15     6     7   ar
    16     7     8   ar
    17     8     9   ar
    18     9    10    1
    19     9    11   ar
    20    11    12    1
    21    11    13   ar
    22     4     5   ar
    23    20    21    1
    24    21    22    1
    25    22    17    1
    26     5     1   ar
    27    13     6   ar
