@<TRIPOS>MOLECULE
*****
 26 28 0 0 0
SMALL
GASTEIGER

@<TRIPOS>ATOM
      1 C         142.6499  140.5332  166.2849 C.ar    1  UNL1       -0.0078
      2 C         143.3431  139.2162  166.0983 C.ar    1  UNL1        0.0001
      3 C         143.6157  138.7014  164.7161 C.ar    1  UNL1        0.0366
      4 C         143.1952  139.5037  163.5205 C.ar    1  UNL1        0.1390
      5 C         142.5021  140.8208  163.7071 C.ar    1  UNL1        0.0366
      6 C         142.2294  141.3355  165.0893 C.ar    1  UNL1        0.0001
      7 C         141.4798  141.2740  169.9109 C.3     1  UNL1        0.1315
      8 C         142.4354  142.4065  169.6777 C.3     1  UNL1        0.0268
      9 C         142.9900  142.2668  168.2910 C.3     1  UNL1        0.0221
     10 C         142.3772  141.0480  167.6673 C.3     1  UNL1        0.0772
     11 N         141.4439  140.4344  168.6684 N.3     1  UNL1       -0.2890
     12 H         141.7440  139.4838  168.8842 H       1  UNL1        0.1239
     13 N         140.0082  139.7085  171.3717 N.am    1  UNL1       -0.3277
     14 C         140.6975  141.0248  171.1663 C.2     1  UNL1        0.2336
     15 O         140.6046  142.0919  172.2164 O.2     1  UNL1       -0.2739
     16 H         139.4948  139.5450  172.1956 H       1  UNL1        0.1450
     17 H         140.0692  139.0081  170.6825 H       1  UNL1        0.1450
     18 O         143.4680  138.9889  162.1382 O.3     1  UNL1       -0.4706
     19 C         142.5544  137.9704  161.5234 C.3     1  UNL1        0.2342
     20 C         141.0699  138.0889  161.7030 C.ar    1  UNL1        0.0486
     21 C         140.2490  138.8324  160.6913 C.ar    1  UNL1        0.0016
     22 C         138.7646  138.9509  160.8710 C.ar    1  UNL1       -0.0001
     23 C         138.1010  138.3259  162.0622 C.ar    1  UNL1        0.0023
     24 C         138.9218  137.5825  163.0739 C.ar    1  UNL1        0.0294
     25 C         140.4063  137.4640  162.8942 C.ar    1  UNL1        0.1396
     26 F         141.2272  136.7205  163.9059 F       1  UNL1       -0.2044
@<TRIPOS>BOND
     1    13    14   am
     2    14    15    2
     3     7    14    1
     4     7     8    1
     5     8     9    1
     6     9    10    1
     7    10     1    1
     8     1     2   ar
     9     2     3   ar
    10     3     4   ar
    11     4    18    1
    12    18    19    1
    13    19    20    1
    14    20    21   ar
    15    21    22   ar
    16    22    23   ar
    17    23    24   ar
    18    24    25   ar
    19    25    26    1
    20     4     5   ar
    21     5     6   ar
    22    10    11    1
    23    11     7    1
    24     6     1   ar
    25    25    20   ar
    26    13    16    1
    27    13    17    1
    28    11    12    1
@<TRIPOS>MOLECULE
*****
 26 28 0 0 0
SMALL
GASTEIGER

@<TRIPOS>ATOM
      1 C         139.5787  140.6871  166.2191 C.ar    1  UNL1       -0.0078
      2 C         139.2867  139.2159  166.2075 C.ar    1  UNL1        0.0001
      3 C         138.7731  138.5631  164.9585 C.ar    1  UNL1        0.0366
      4 C         138.5515  139.3815  163.7211 C.ar    1  UNL1        0.1390
      5 C         138.8435  140.8527  163.7327 C.ar    1  UNL1        0.0366
      6 C         139.3571  141.5055  164.9817 C.ar    1  UNL1        0.0001
      7 C         140.8500  141.6863  169.7477 C.3     1  UNL1        0.1315
      8 C         140.9156  143.0032  169.0323 C.3     1  UNL1        0.0268
      9 C         140.4474  142.7891  167.6235 C.3     1  UNL1        0.0221
     10 C         140.0924  141.3400  167.4681 C.3     1  UNL1        0.0772
     11 N         140.3413  140.6585  168.7809 N.3     1  UNL1       -0.2890
     12 H         141.0361  139.9213  168.6620 H       1  UNL1        0.1239
     13 N         142.3462  140.4976  171.5080 N.am    1  UNL1       -0.3277
     14 C         141.2270  141.4405  171.1786 C.2     1  UNL1        0.2336
     15 O         140.4849  142.1376  172.2801 O.2     1  UNL1       -0.2739
     16 H         142.5936  140.3363  172.4471 H       1  UNL1        0.1450
     17 H         142.8332  140.0401  170.7850 H       1  UNL1        0.1450
     18 O         138.0378  138.7286  162.4721 O.3     1  UNL1       -0.4706
     19 C         138.9778  137.9744  161.5790 C.3     1  UNL1        0.2342
     20 C         140.4220  138.3725  161.5033 C.ar    1  UNL1        0.0486
     21 C         140.8556  139.4439  160.5472 C.ar    1  UNL1        0.0016
     22 C         142.2998  139.8419  160.4715 C.ar    1  UNL1       -0.0001
     23 C         143.3105  139.1686  161.3519 C.ar    1  UNL1        0.0023
     24 C         142.8770  138.0972  162.3080 C.ar    1  UNL1        0.0294
     25 C         141.4327  137.6991  162.3837 C.ar    1  UNL1        0.1396
     26 F         140.9992  136.6277  163.3398 F       1  UNL1       -0.2044
@<TRIPOS>BOND
     1    13    14   am
     2    14    15    2
     3     7    14    1
     4     7     8    1
     5     8     9    1
     6     9    10    1
     7    10     1    1
     8     1     2   ar
     9     2     3   ar
    10     3     4   ar
    11     4    18    1
    12    18    19    1
    13    19    20    1
    14    20    21   ar
    15    21    22   ar
    16    22    23   ar
    17    23    24   ar
    18    24    25   ar
    19    25    26    1
    20     4     5   ar
    21     5     6   ar
    22    10    11    1
    23    11     7    1
    24     6     1   ar
    25    25    20   ar
    26    13    16    1
    27    13    17    1
    28    11    12    1
@<TRIPOS>MOLECULE
*****
 26 28 0 0 0
SMALL
GASTEIGER

@<TRIPOS>ATOM
      1 C         142.8161  141.0065  166.5831 C.ar    1  UNL1       -0.0078
      2 C         143.0020  141.7580  165.2984 C.ar    1  UNL1        0.0001
      3 C         143.3496  141.0185  164.0405 C.ar    1  UNL1        0.0366
      4 C         143.5113  139.5275  164.0674 C.ar    1  UNL1        0.1390
      5 C         143.3255  138.7760  165.3521 C.ar    1  UNL1        0.0366
      6 C         142.9779  139.5155  166.6100 C.ar    1  UNL1        0.0001
      7 C         141.2130  142.8972  169.5699 C.3     1  UNL1        0.1315
      8 C         142.6545  142.8705  169.9839 C.3     1  UNL1        0.0268
      9 C         143.4305  142.1590  168.9154 C.3     1  UNL1        0.0221
     10 C         142.4685  141.7459  167.8411 C.3     1  UNL1        0.0772
     11 N         141.0981  142.2022  168.2456 N.3     1  UNL1       -0.2890
     12 H         140.4763  141.3980  168.3295 H       1  UNL1        0.1239
     13 N         139.9081  145.0006  170.3591 N.am    1  UNL1       -0.3277
     14 C         140.0845  143.5111  170.3443 C.2     1  UNL1        0.2336
     15 O         139.1324  142.6356  171.1038 O.2     1  UNL1       -0.2739
     16 H         139.1674  145.4036  170.8673 H       1  UNL1        0.1450
     17 H         140.5330  145.5753  169.8606 H       1  UNL1        0.1450
     18 O         143.8589  138.7881  162.8094 O.3     1  UNL1       -0.4706
     19 C         142.8375  137.9106  162.1486 C.3     1  UNL1        0.2342
     20 C         141.3763  138.2122  162.3042 C.ar    1  UNL1        0.0486
     21 C         140.7360  139.2751  161.4614 C.ar    1  UNL1        0.0016
     22 C         139.2750  139.5767  161.6170 C.ar    1  UNL1       -0.0001
     23 C         138.4542  138.8154  162.6154 C.ar    1  UNL1        0.0023
     24 C         139.0944  137.7526  163.4582 C.ar    1  UNL1        0.0294
     25 C         140.5555  137.4510  163.3026 C.ar    1  UNL1        0.1396
     26 F         141.1959  136.3881  164.1454 F       1  UNL1       -0.2044
@<TRIPOS>BOND
     1    13    14   am
     2    14    15    2
     3     7    14    1
     4     7     8    1
     5     8     9    1
     6     9    10    1
     7    10     1    1
     8     1     2   ar
     9     2     3   ar
    10     3     4   ar
    11     4    18    1
    12    18    19    1
    13    19    20    1
    14    20    21   ar
    15    21    22   ar
    16    22    23   ar
    17    23    24   ar
    18    24    25   ar
    19    25    26    1
    20     4     5   ar
    21     5     6   ar
    22    10    11    1
    23    11     7    1
    24     6     1   ar
    25    25    20   ar
    26    13    16    1
    27    13    17    1
    28    11    12    1
@<TRIPOS>MOLECULE
*****
 26 28 0 0 0
SMALL
GASTEIGER

@<TRIPOS>ATOM
      1 C         140.5515  139.5937  166.7014 C.ar    1  UNL1       -0.0078
      2 C         141.3506  139.2694  165.4741 C.ar    1  UNL1        0.0001
      3 C         140.6560  138.8091  164.2269 C.ar    1  UNL1        0.0366
      4 C         139.1623  138.6731  164.2070 C.ar    1  UNL1        0.1390
      5 C         138.3632  138.9974  165.4343 C.ar    1  UNL1        0.0366
      6 C         139.0578  139.4577  166.6815 C.ar    1  UNL1        0.0001
      7 C         141.7846  141.2824  169.9715 C.3     1  UNL1        0.1315
      8 C         142.8456  140.2424  169.7645 C.3     1  UNL1        0.0268
      9 C         142.5128  139.4832  168.5143 C.3     1  UNL1        0.0221
     10 C         141.2462  140.0540  167.9487 C.3     1  UNL1        0.0772
     11 N         140.7961  141.1659  168.8493 N.3     1  UNL1       -0.2890
     12 H         139.8709  140.9554  169.2234 H       1  UNL1        0.1239
     13 N         142.8025  143.2953  171.2607 N.am    1  UNL1       -0.3277
     14 C         141.7229  142.2660  171.1023 C.2     1  UNL1        0.2336
     15 O         140.5817  142.2205  172.0746 O.2     1  UNL1       -0.2739
     16 H         142.7621  143.9409  172.0028 H       1  UNL1        0.1450
     17 H         143.5516  143.3252  170.6225 H       1  UNL1        0.1450
     18 O         138.4677  138.2127  162.9597 O.3     1  UNL1       -0.4706
     19 C         137.7772  139.2079  162.0749 C.3     1  UNL1        0.2342
     20 C         138.1465  140.6599  162.1484 C.ar    1  UNL1        0.0486
     21 C         137.3074  141.6074  162.9534 C.ar    1  UNL1        0.0016
     22 C         137.6767  143.0594  163.0268 C.ar    1  UNL1       -0.0001
     23 C         138.8851  143.5638  162.2953 C.ar    1  UNL1        0.0023
     24 C         139.7243  142.6163  161.4903 C.ar    1  UNL1        0.0294
     25 C         139.3549  141.1644  161.4168 C.ar    1  UNL1        0.1396
     26 F         140.1941  140.2168  160.6118 F       1  UNL1       -0.2044
@<TRIPOS>BOND
     1    13    14   am
     2    14    15    2
     3     7    14    1
     4     7     8    1
     5     8     9    1
     6     9    10    1
     7    10     1    1
     8     1     2   ar
     9     2     3   ar
    10     3     4   ar
    11     4    18    1
    12    18    19    1
    13    19    20    1
    14    20    21   ar
    15    21    22   ar
    16    22    23   ar
    17    23    24   ar
    18    24    25   ar
    19    25    26    1
    20     4     5   ar
    21     5     6   ar
    22    10    11    1
    23    11     7    1
    24     6     1   ar
    25    25    20   ar
    26    13    16    1
    27    13    17    1
    28    11    12    1
@<TRIPOS>MOLECULE
*****
 26 28 0 0 0
SMALL
GASTEIGER

@<TRIPOS>ATOM
      1 C         139.9003  142.3244  166.0622 C.ar    1  UNL1       -0.0078
      2 C         139.9448  141.5436  164.7822 C.ar    1  UNL1        0.0001
      3 C         139.7584  142.2445  163.4693 C.ar    1  UNL1        0.0366
      4 C         139.5275  143.7262  163.4362 C.ar    1  UNL1        0.1390
      5 C         139.4831  144.5071  164.7161 C.ar    1  UNL1        0.0366
      6 C         139.6695  143.8062  166.0291 C.ar    1  UNL1        0.0001
      7 C         140.6963  141.1602  169.6783 C.3     1  UNL1        0.1315
      8 C         140.0508  139.9297  169.1131 C.3     1  UNL1        0.0268
      9 C         139.6741  140.2161  167.6898 C.3     1  UNL1        0.0221
     10 C         140.0867  141.6235  167.3752 C.3     1  UNL1        0.0772
     11 N         140.7185  142.2070  168.6042 N.3     1  UNL1       -0.2890
     12 H         140.1922  143.0261  168.9083 H       1  UNL1        0.1239
     13 N         142.4402  140.5478  171.5042 N.am    1  UNL1       -0.3277
     14 C         141.2265  141.3164  171.0728 C.2     1  UNL1        0.2336
     15 O         140.5429  142.2412  172.0359 O.2     1  UNL1       -0.2739
     16 H         142.7881  140.6503  172.4194 H       1  UNL1        0.1450
     17 H         142.8888  139.9408  170.8721 H       1  UNL1        0.1450
     18 O         139.3411  144.4271  162.1231 O.3     1  UNL1       -0.4706
     19 C         140.5172  145.0518  161.4328 C.3     1  UNL1        0.2342
     20 C         141.8794  144.4387  161.5690 C.ar    1  UNL1        0.0486
     21 C         142.3717  143.4682  160.5366 C.ar    1  UNL1        0.0016
     22 C         143.7339  142.8551  160.6729 C.ar    1  UNL1       -0.0001
     23 C         144.6037  143.2125  161.8415 C.ar    1  UNL1        0.0023
     24 C         144.1115  144.1829  162.8739 C.ar    1  UNL1        0.0294
     25 C         142.7493  144.7960  162.7376 C.ar    1  UNL1        0.1396
     26 F         142.2569  145.7665  163.7701 F       1  UNL1       -0.2044
@<TRIPOS>BOND
     1    13    14   am
     2    14    15    2
     3     7    14    1
     4     7     8    1
     5     8     9    1
     6     9    10    1
     7    10     1    1
     8     1     2   ar
     9     2     3   ar
    10     3     4   ar
    11     4    18    1
    12    18    19    1
    13    19    20    1
    14    20    21   ar
    15    21    22   ar
    16    22    23   ar
    17    23    24   ar
    18    24    25   ar
    19    25    26    1
    20     4     5   ar
    21     5     6   ar
    22    10    11    1
    23    11     7    1
    24     6     1   ar
    25    25    20   ar
    26    13    16    1
    27    13    17    1
    28    11    12    1
@<TRIPOS>MOLECULE
*****
 26 28 0 0 0
SMALL
GASTEIGER

@<TRIPOS>ATOM
      1 C         142.3143  141.0674  166.2179 C.ar    1  UNL1       -0.0078
      2 C         143.1316  142.3138  166.0489 C.ar    1  UNL1        0.0001
      3 C         143.3350  142.8977  164.6823 C.ar    1  UNL1        0.0366
      4 C         142.7212  142.2352  163.4847 C.ar    1  UNL1        0.1390
      5 C         141.9039  140.9888  163.6537 C.ar    1  UNL1        0.0366
      6 C         141.7004  140.4050  165.0203 C.ar    1  UNL1        0.0001
      7 C         141.2743  140.1025  169.8308 C.3     1  UNL1        0.1315
      8 C         142.3213  139.0672  169.5443 C.3     1  UNL1        0.0268
      9 C         142.8383  139.3027  168.1561 C.3     1  UNL1        0.0221
     10 C         142.1109  140.4835  167.5846 C.3     1  UNL1        0.0772
     11 N         141.1442  140.9777  168.6196 N.3     1  UNL1       -0.2890
     12 H         140.1924  140.9271  168.2565 H       1  UNL1        0.1239
     13 N         139.6372  139.1048  171.5842 N.am    1  UNL1       -0.3277
     14 C         140.4943  140.2386  171.1048 C.2     1  UNL1        0.2336
     15 O         140.5714  141.5084  171.8995 O.2     1  UNL1       -0.2739
     16 H         139.1252  139.1941  172.4203 H       1  UNL1        0.1450
     17 H         139.5865  138.2713  171.0626 H       1  UNL1        0.1450
     18 O         142.9246  142.8191  162.1180 O.3     1  UNL1       -0.4706
     19 C         141.9262  143.7902  161.5611 C.3     1  UNL1        0.2342
     20 C         140.5642  143.9029  162.1794 C.ar    1  UNL1        0.0486
     21 C         139.4158  143.1229  161.6113 C.ar    1  UNL1        0.0016
     22 C         138.0538  143.2356  162.2296 C.ar    1  UNL1       -0.0001
     23 C         137.8402  144.1284  163.4159 C.ar    1  UNL1        0.0023
     24 C         138.9886  144.9084  163.9840 C.ar    1  UNL1        0.0294
     25 C         140.3506  144.7957  163.3657 C.ar    1  UNL1        0.1396
     26 F         141.4991  145.5757  163.9337 F       1  UNL1       -0.2044
@<TRIPOS>BOND
     1    13    14   am
     2    14    15    2
     3     7    14    1
     4     7     8    1
     5     8     9    1
     6     9    10    1
     7    10     1    1
     8     1     2   ar
     9     2     3   ar
    10     3     4   ar
    11     4    18    1
    12    18    19    1
    13    19    20    1
    14    20    21   ar
    15    21    22   ar
    16    22    23   ar
    17    23    24   ar
    18    24    25   ar
    19    25    26    1
    20     4     5   ar
    21     5     6   ar
    22    10    11    1
    23    11     7    1
    24     6     1   ar
    25    25    20   ar
    26    13    16    1
    27    13    17    1
    28    11    12    1
@<TRIPOS>MOLECULE
*****
 26 28 0 0 0
SMALL
GASTEIGER

@<TRIPOS>ATOM
      1 C         140.0948  141.6116  166.7737 C.ar    1  UNL1       -0.0078
      2 C         139.7636  140.8244  165.5407 C.ar    1  UNL1        0.0001
      3 C         139.3510  141.5348  164.2857 C.ar    1  UNL1        0.0366
      4 C         139.2696  143.0324  164.2638 C.ar    1  UNL1        0.1390
      5 C         139.6008  143.8196  165.4969 C.ar    1  UNL1        0.0366
      6 C         140.0134  143.1092  166.7519 C.ar    1  UNL1        0.0001
      7 C         141.8227  139.6874  169.6682 C.3     1  UNL1        0.1315
      8 C         140.4622  139.9287  170.2521 C.3     1  UNL1        0.0268
      9 C         139.6494  140.6788  169.2389 C.3     1  UNL1        0.0221
     10 C         140.5075  140.9012  168.0288 C.3     1  UNL1        0.0772
     11 N         141.8507  140.2885  168.2942 N.3     1  UNL1       -0.2890
     12 H         142.5742  141.0058  168.2448 H       1  UNL1        0.1239
     13 N         143.7983  139.6853  171.3555 N.am    1  UNL1       -0.3277
     14 C         142.9562  138.9709  170.3403 C.2     1  UNL1        0.2336
     15 O         143.2476  137.5400  169.9974 O.2     1  UNL1       -0.2739
     16 H         144.5422  139.2150  171.7966 H       1  UNL1        0.1450
     17 H         143.6071  140.6244  171.5806 H       1  UNL1        0.1450
     18 O         138.8569  143.7428  163.0087 O.3     1  UNL1       -0.4706
     19 C         139.8914  144.4010  162.1447 C.3     1  UNL1        0.2342
     20 C         141.3484  144.2361  162.4615 C.ar    1  UNL1        0.0486
     21 C         142.0600  145.2727  163.2795 C.ar    1  UNL1        0.0016
     22 C         143.5168  145.1078  163.5962 C.ar    1  UNL1       -0.0001
     23 C         144.2620  143.9064  163.0950 C.ar    1  UNL1        0.0023
     24 C         143.5504  142.8699  162.2769 C.ar    1  UNL1        0.0294
     25 C         142.0936  143.0348  161.9602 C.ar    1  UNL1        0.1396
     26 F         141.3819  141.9982  161.1422 F       1  UNL1       -0.2044
@<TRIPOS>BOND
     1    13    14   am
     2    14    15    2
     3     7    14    1
     4     7     8    1
     5     8     9    1
     6     9    10    1
     7    10     1    1
     8     1     2   ar
     9     2     3   ar
    10     3     4   ar
    11     4    18    1
    12    18    19    1
    13    19    20    1
    14    20    21   ar
    15    21    22   ar
    16    22    23   ar
    17    23    24   ar
    18    24    25   ar
    19    25    26    1
    20     4     5   ar
    21     5     6   ar
    22    10    11    1
    23    11     7    1
    24     6     1   ar
    25    25    20   ar
    26    13    16    1
    27    13    17    1
    28    11    12    1
@<TRIPOS>MOLECULE
*****
 26 28 0 0 0
SMALL
GASTEIGER

@<TRIPOS>ATOM
      1 C         140.5300  143.0675  166.1018 C.ar    1  UNL1       -0.0078
      2 C         141.7499  143.0921  165.2293 C.ar    1  UNL1        0.0001
      3 C         141.7760  143.9525  164.0009 C.ar    1  UNL1        0.0366
      4 C         140.5823  144.7882  163.6450 C.ar    1  UNL1        0.1390
      5 C         139.3625  144.7636  164.5175 C.ar    1  UNL1        0.0366
      6 C         139.3363  143.9032  165.7459 C.ar    1  UNL1        0.0001
      7 C         140.8165  141.4216  169.6053 C.3     1  UNL1        0.1315
      8 C         140.1106  140.3445  168.8359 C.3     1  UNL1        0.0268
      9 C         139.9174  140.8300  167.4299 C.3     1  UNL1        0.0221
     10 C         140.5039  142.2071  167.3303 C.3     1  UNL1        0.0772
     11 N         141.0595  142.5726  168.6747 N.3     1  UNL1       -0.2890
     12 H         140.5915  143.4075  169.0273 H       1  UNL1        0.1239
     13 N         142.3424  140.4742  171.4825 N.am    1  UNL1       -0.3277
     14 C         141.2101  141.3585  171.0513 C.2     1  UNL1        0.2336
     15 O         140.4715  142.1798  172.0662 O.2     1  UNL1       -0.2739
     16 H         142.6008  140.4328  172.4316 H       1  UNL1        0.1450
     17 H         142.8272  139.9352  170.8164 H       1  UNL1        0.1450
     18 O         140.6085  145.6486  162.4165 O.3     1  UNL1       -0.4706
     19 C         140.1121  145.1052  161.1095 C.3     1  UNL1        0.2342
     20 C         139.9580  143.6248  160.9228 C.ar    1  UNL1        0.0486
     21 C         138.6300  142.9722  161.1683 C.ar    1  UNL1        0.0016
     22 C         138.4759  141.4918  160.9816 C.ar    1  UNL1       -0.0001
     23 C         139.6499  140.6642  160.5494 C.ar    1  UNL1        0.0023
     24 C         140.9779  141.3169  160.3039 C.ar    1  UNL1        0.0294
     25 C         141.1320  142.7972  160.4906 C.ar    1  UNL1        0.1396
     26 F         142.4601  143.4499  160.2451 F       1  UNL1       -0.2044
@<TRIPOS>BOND
     1    13    14   am
     2    14    15    2
     3     7    14    1
     4     7     8    1
     5     8     9    1
     6     9    10    1
     7    10     1    1
     8     1     2   ar
     9     2     3   ar
    10     3     4   ar
    11     4    18    1
    12    18    19    1
    13    19    20    1
    14    20    21   ar
    15    21    22   ar
    16    22    23   ar
    17    23    24   ar
    18    24    25   ar
    19    25    26    1
    20     4     5   ar
    21     5     6   ar
    22    10    11    1
    23    11     7    1
    24     6     1   ar
    25    25    20   ar
    26    13    16    1
    27    13    17    1
    28    11    12    1
@<TRIPOS>MOLECULE
*****
 26 28 0 0 0
SMALL
GASTEIGER

@<TRIPOS>ATOM
      1 C         139.3294  140.2992  166.3164 C.ar    1  UNL1       -0.0078
      2 C         139.0574  141.2774  165.2123 C.ar    1  UNL1        0.0001
      3 C         138.6412  140.7835  163.8585 C.ar    1  UNL1        0.0366
      4 C         138.4969  139.3115  163.6089 C.ar    1  UNL1        0.1390
      5 C         138.7689  138.3333  164.7130 C.ar    1  UNL1        0.0366
      6 C         139.1852  138.8272  166.0668 C.ar    1  UNL1        0.0001
      7 C         140.6785  142.1682  169.4394 C.3     1  UNL1        0.1315
      8 C         140.0941  140.9378  170.0679 C.3     1  UNL1        0.0268
      9 C         139.5177  140.0880  168.9745 C.3     1  UNL1        0.0221
     10 C         139.7457  140.7931  167.6703 C.3     1  UNL1        0.0772
     11 N         140.4631  142.0787  167.9576 N.3     1  UNL1       -0.2890
     12 H         139.8994  142.8678  167.6415 H       1  UNL1        0.1239
     13 N         142.7057  143.0738  170.7885 N.am    1  UNL1       -0.3277
     14 C         141.3587  143.2908  170.1653 C.2     1  UNL1        0.2336
     15 O         140.6920  144.6306  170.2679 O.2     1  UNL1       -0.2739
     16 H         143.1521  143.8106  171.2650 H       1  UNL1        0.1450
     17 H         143.1433  142.1945  170.7212 H       1  UNL1        0.1450
     18 O         138.0806  138.8176  162.2550 O.3     1  UNL1       -0.4706
     19 C         139.0809  138.1462  161.3614 C.3     1  UNL1        0.2342
     20 C         140.5202  138.5673  161.3971 C.ar    1  UNL1        0.0486
     21 C         141.5469  137.6757  162.0302 C.ar    1  UNL1        0.0016
     22 C         142.9862  138.0968  162.0659 C.ar    1  UNL1       -0.0001
     23 C         143.3986  139.4094  161.4686 C.ar    1  UNL1        0.0023
     24 C         142.3718  140.3010  160.8355 C.ar    1  UNL1        0.0294
     25 C         140.9326  139.8799  160.7997 C.ar    1  UNL1        0.1396
     26 F         139.9058  140.7715  160.1666 F       1  UNL1       -0.2044
@<TRIPOS>BOND
     1    13    14   am
     2    14    15    2
     3     7    14    1
     4     7     8    1
     5     8     9    1
     6     9    10    1
     7    10     1    1
     8     1     2   ar
     9     2     3   ar
    10     3     4   ar
    11     4    18    1
    12    18    19    1
    13    19    20    1
    14    20    21   ar
    15    21    22   ar
    16    22    23   ar
    17    23    24   ar
    18    24    25   ar
    19    25    26    1
    20     4     5   ar
    21     5     6   ar
    22    10    11    1
    23    11     7    1
    24     6     1   ar
    25    25    20   ar
    26    13    16    1
    27    13    17    1
    28    11    12    1
