@<TRIPOS>MOLECULE
*****
 34 37 0 0 0
SMALL
GASTEIGER

@<TRIPOS>ATOM
      1 C         142.8291  133.7976  154.5315 C.3     1  UNL1        0.0448
      2 C         142.3848  135.1182  153.9760 C.3     1  UNL1        0.0251
      3 C         142.3631  136.1105  155.1006 C.3     1  UNL1        0.0955
      4 N         142.7940  135.4032  156.3512 N.am    1  UNL1       -0.2571
      5 C         142.9156  136.0176  157.7143 C.2     1  UNL1        0.3094
      6 O         143.3612  135.1810  158.8769 O.2     1  UNL1       -0.2522
      7 N         142.5916  137.4684  157.9147 N.am    1  UNL1       -0.2483
      8 C         143.0821  133.9737  155.9995 C.3     1  UNL1        0.1541
      9 H         142.2991  138.0174  157.1517 H       1  UNL1        0.1583
     10 C         142.7132  138.0826  159.2778 C.ar    1  UNL1        0.1664
     11 N         143.8859  138.8644  159.7911 N.ar    1  UNL1       -0.2282
     12 C         143.5808  139.2879  161.1974 C.ar    1  UNL1        0.0687
     13 C         142.2196  138.7678  161.5532 C.ar    1  UNL1        0.0634
     14 S         141.6833  138.0229  160.3668 S.2     1  UNL1       -0.0502
     15 C         141.6442  139.0397  162.9115 C.ar    1  UNL1        0.0906
     16 N         140.3380  138.6587  163.5429 N.ar    1  UNL1       -0.2425
     17 C         140.3166  139.2152  164.9356 C.ar    1  UNL1        0.0872
     18 S         141.6096  139.9402  165.1650 S.2     1  UNL1       -0.0752
     19 C         142.4301  139.8317  163.9140 C.ar    1  UNL1        0.0269
     20 C         143.7913  140.3518  163.5583 C.3     1  UNL1        0.0409
     21 C         144.3667  140.0799  162.1999 C.3     1  UNL1        0.0517
     22 C         139.1986  139.0719  165.9253 C.3     1  UNL1        0.0412
     23 C         139.5669  140.3931  166.5326 C.3     1  UNL1        0.0065
     24 C         138.8303  137.7508  165.3179 C.3     1  UNL1        0.0065
     25 C         138.0805  138.9286  166.9149 C.3     1  UNL1        0.0065
     26 C         143.5422  132.9076  156.9491 C.2     1  UNL1        0.2376
     27 N         144.8887  133.0147  157.6015 N.am    1  UNL1       -0.3275
     28 O         142.6560  131.7345  157.2461 O.2     1  UNL1       -0.2736
     29 H         145.4703  133.7846  157.4066 H       1  UNL1        0.1450
     30 H         145.1907  132.3149  158.2248 H       1  UNL1        0.1450
     31 C         142.9920  132.5244  153.7553 C.3     1  UNL1        0.0743
     32 C         142.6610  129.9637  154.0434 C.3     1  UNL1        0.0897
     33 N         142.0977  131.3540  154.0383 N.3     1  UNL1       -0.2702
     34 C         140.6401  131.5735  154.3163 C.3     1  UNL1        0.0897
@<TRIPOS>BOND
     1    32    33    1
     2    33    34    1
     3    33    31    1
     4     1    31    1
     5     1     2    1
     6     2     3    1
     7     3     4    1
     8     4     5   am
     9     5     6    2
    10     5     7   am
    11     7    10    1
    12    10    11   ar
    13    11    12   ar
    14    12    13   ar
    15    13    14   ar
    16    13    15    1
    17    15    16   ar
    18    16    17   ar
    19    17    22    1
    20    22    23    1
    21    22    24    1
    22    22    25    1
    23    17    18   ar
    24    18    19   ar
    25    19    20    1
    26    20    21    1
    27     4     8    1
    28     8    26    1
    29    26    27   am
    30    26    28    2
    31     8     1    1
    32    14    10   ar
    33    19    15   ar
    34    21    12    1
    35     7     9    1
    36    27    29    1
    37    27    30    1
@<TRIPOS>MOLECULE
*****
 34 37 0 0 0
SMALL
GASTEIGER

@<TRIPOS>ATOM
      1 C         140.0511  144.1280  157.1281 C.3     1  UNL1        0.0448
      2 C         138.7394  143.4147  156.9840 C.3     1  UNL1        0.0251
      3 C         138.4316  142.7422  158.2890 C.3     1  UNL1        0.0955
      4 N         139.5530  143.0399  159.2396 N.am    1  UNL1       -0.2571
      5 C         139.6555  142.5645  160.6586 C.2     1  UNL1        0.3094
      6 O         140.8427  142.9445  161.4929 O.2     1  UNL1       -0.2522
      7 N         138.5709  141.7091  161.2433 N.am    1  UNL1       -0.2483
      8 C         140.5540  143.8963  158.5222 C.3     1  UNL1        0.1541
      9 H         137.7917  141.4597  160.6957 H       1  UNL1        0.1583
     10 C         138.6734  141.2338  162.6623 C.ar    1  UNL1        0.1664
     11 N         138.0091  140.0168  163.2347 N.ar    1  UNL1       -0.2282
     12 C         138.3835  139.9229  164.6842 C.ar    1  UNL1        0.0687
     13 C         139.2792  141.0818  165.0076 C.ar    1  UNL1        0.0634
     14 S         139.4584  141.8920  163.7580 S.2     1  UNL1       -0.0502
     15 C         139.8159  141.2496  166.3982 C.ar    1  UNL1        0.0906
     16 N         140.7134  142.2844  167.0096 N.ar    1  UNL1       -0.2425
     17 C         140.9090  141.9328  168.4547 C.ar    1  UNL1        0.0872
     18 S         140.1325  140.6808  168.7363 S.2     1  UNL1       -0.0752
     19 C         139.4568  140.2585  167.4654 C.ar    1  UNL1        0.0269
     20 C         138.5612  139.0996  167.1419 C.3     1  UNL1        0.0409
     21 C         138.0244  138.9318  165.7513 C.3     1  UNL1        0.0517
     22 C         141.7360  142.6987  169.4443 C.3     1  UNL1        0.0412
     23 C         142.9003  141.7929  169.1725 C.3     1  UNL1        0.0065
     24 C         140.5717  143.6046  169.7161 C.3     1  UNL1        0.0065
     25 C         142.5630  143.4647  170.4339 C.3     1  UNL1        0.0065
     26 C         141.8331  144.4277  159.0978 C.2     1  UNL1        0.2376
     27 N         141.7943  145.4541  160.1910 N.am    1  UNL1       -0.3275
     28 O         143.1511  143.9328  158.5802 O.2     1  UNL1       -0.2736
     29 H         140.9293  145.7790  160.5307 H       1  UNL1        0.1450
     30 H         142.6339  145.8029  160.5688 H       1  UNL1        0.1450
     31 C         140.7391  144.9318  156.0648 C.3     1  UNL1        0.0743
     32 C         140.4097  146.7643  154.2529 C.3     1  UNL1        0.0897
     33 N         140.1771  146.2577  155.6455 N.3     1  UNL1       -0.2702
     34 C         139.3823  147.0771  156.6186 C.3     1  UNL1        0.0897
@<TRIPOS>BOND
     1    32    33    1
     2    33    34    1
     3    33    31    1
     4     1    31    1
     5     1     2    1
     6     2     3    1
     7     3     4    1
     8     4     5   am
     9     5     6    2
    10     5     7   am
    11     7    10    1
    12    10    11   ar
    13    11    12   ar
    14    12    13   ar
    15    13    14   ar
    16    13    15    1
    17    15    16   ar
    18    16    17   ar
    19    17    22    1
    20    22    23    1
    21    22    24    1
    22    22    25    1
    23    17    18   ar
    24    18    19   ar
    25    19    20    1
    26    20    21    1
    27     4     8    1
    28     8    26    1
    29    26    27   am
    30    26    28    2
    31     8     1    1
    32    14    10   ar
    33    19    15   ar
    34    21    12    1
    35     7     9    1
    36    27    29    1
    37    27    30    1
@<TRIPOS>MOLECULE
*****
 34 37 0 0 0
SMALL
GASTEIGER

@<TRIPOS>ATOM
      1 C         144.3669  143.0994  154.5706 C.3     1  UNL1        0.0448
      2 C         143.1386  143.9517  154.6932 C.3     1  UNL1        0.0251
      3 C         142.7322  143.9742  156.1369 C.3     1  UNL1        0.0955
      4 N         143.7093  143.1358  156.9066 N.am    1  UNL1       -0.2571
      5 C         143.6810  142.8826  158.3848 C.2     1  UNL1        0.3094
      6 O         144.7306  142.0178  159.0178 O.2     1  UNL1       -0.2522
      7 N         142.6032  143.4941  159.2301 N.am    1  UNL1       -0.2483
      8 C         144.7196  142.5952  155.9386 C.3     1  UNL1        0.1541
      9 H         141.9144  144.0616  158.8147 H       1  UNL1        0.1583
     10 C         142.5750  143.2408  160.7083 C.ar    1  UNL1        0.1664
     11 N         143.5305  143.8046  161.7178 N.ar    1  UNL1       -0.2282
     12 C         143.1323  143.2915  163.0699 C.ar    1  UNL1        0.0687
     13 C         141.9308  142.4104  162.8960 C.ar    1  UNL1        0.0634
     14 S         141.5864  142.3791  161.4364 S.2     1  UNL1       -0.0502
     15 C         141.3056  141.7506  164.0892 C.ar    1  UNL1        0.0906
     16 N         140.1245  140.8361  164.2264 N.ar    1  UNL1       -0.2425
     17 C         139.9709  140.4921  165.6783 C.ar    1  UNL1        0.0872
     18 S         141.0570  141.1939  166.4384 S.2     1  UNL1       -0.0752
     19 C         141.8820  141.9717  165.4563 C.ar    1  UNL1        0.0269
     20 C         143.0834  142.8527  165.6302 C.3     1  UNL1        0.0409
     21 C         143.7086  143.5126  164.4370 C.3     1  UNL1        0.0517
     22 C         138.9163  139.6025  166.2668 C.3     1  UNL1        0.0412
     23 C         138.3787  139.3310  164.8930 C.3     1  UNL1        0.0065
     24 C         139.4539  139.8740  167.6406 C.3     1  UNL1        0.0065
     25 C         137.8617  138.7129  166.8553 C.3     1  UNL1        0.0065
     26 C         145.8789  141.7063  156.2788 C.2     1  UNL1        0.2376
     27 N         145.6596  140.2388  156.4990 N.am    1  UNL1       -0.3275
     28 O         147.2576  142.2849  156.3989 O.2     1  UNL1       -0.2736
     29 H         144.7548  139.8591  156.4202 H       1  UNL1        0.1450
     30 H         146.4206  139.6555  156.7223 H       1  UNL1        0.1450
     31 C         145.1116  142.8034  153.3027 C.3     1  UNL1        0.0743
     32 C         147.5731  142.3908  152.5813 C.3     1  UNL1        0.0897
     33 N         146.5137  143.3047  153.1219 N.3     1  UNL1       -0.2702
     34 C         146.8564  144.7200  153.4817 C.3     1  UNL1        0.0897
@<TRIPOS>BOND
     1    32    33    1
     2    33    34    1
     3    33    31    1
     4     1    31    1
     5     1     2    1
     6     2     3    1
     7     3     4    1
     8     4     5   am
     9     5     6    2
    10     5     7   am
    11     7    10    1
    12    10    11   ar
    13    11    12   ar
    14    12    13   ar
    15    13    14   ar
    16    13    15    1
    17    15    16   ar
    18    16    17   ar
    19    17    22    1
    20    22    23    1
    21    22    24    1
    22    22    25    1
    23    17    18   ar
    24    18    19   ar
    25    19    20    1
    26    20    21    1
    27     4     8    1
    28     8    26    1
    29    26    27   am
    30    26    28    2
    31     8     1    1
    32    14    10   ar
    33    19    15   ar
    34    21    12    1
    35     7     9    1
    36    27    29    1
    37    27    30    1
@<TRIPOS>MOLECULE
*****
 34 37 0 0 0
SMALL
GASTEIGER

@<TRIPOS>ATOM
      1 C         139.9246  142.0411  163.2339 C.3     1  UNL1        0.0448
      2 C         141.1839  142.7011  162.7557 C.3     1  UNL1        0.0251
      3 C         141.7218  141.8974  161.6090 C.3     1  UNL1        0.0955
      4 N         140.7950  140.7408  161.3786 N.am    1  UNL1       -0.2571
      5 C         140.9515  139.6814  160.3282 C.2     1  UNL1        0.3094
      6 O         139.9391  138.5801  160.2172 O.2     1  UNL1       -0.2522
      7 N         142.1202  139.7232  159.3890 N.am    1  UNL1       -0.2483
      8 C         139.6842  140.8296  162.3827 C.3     1  UNL1        0.1541
      9 H         142.7847  140.4460  159.4618 H       1  UNL1        0.1583
     10 C         142.2766  138.6637  158.3387 C.ar    1  UNL1        0.1664
     11 N         142.0400  138.8386  156.8678 N.ar    1  UNL1       -0.2282
     12 C         142.3143  137.5264  156.1950 C.ar    1  UNL1        0.0687
     13 C         142.7204  136.5404  157.2500 C.ar    1  UNL1        0.0634
     14 S         142.6971  137.2434  158.5749 S.2     1  UNL1       -0.0502
     15 C         143.0589  135.1300  156.8679 C.ar    1  UNL1        0.0906
     16 N         143.4886  133.9453  157.6815 N.ar    1  UNL1       -0.2425
     17 C         143.6866  132.7886  156.7473 C.ar    1  UNL1        0.0872
     18 S         143.3793  133.2583  155.3563 S.2     1  UNL1       -0.0752
     19 C         142.9913  134.7054  155.4309 C.ar    1  UNL1        0.0269
     20 C         142.5852  135.6913  154.3759 C.3     1  UNL1        0.0409
     21 C         142.2466  137.1018  154.7579 C.3     1  UNL1        0.0517
     22 C         144.1165  131.4051  157.1358 C.3     1  UNL1        0.0412
     23 C         142.9769  130.8298  156.3482 C.3     1  UNL1        0.0065
     24 C         145.2562  131.9803  157.9234 C.3     1  UNL1        0.0065
     25 C         144.5464  130.0215  157.5243 C.3     1  UNL1        0.0065
     26 C         138.5349  139.8745  162.5129 C.2     1  UNL1        0.2376
     27 N         137.3744  139.9642  161.5669 N.am    1  UNL1       -0.3275
     28 O         138.5462  138.8298  163.5892 O.2     1  UNL1       -0.2736
     29 H         137.3670  140.6499  160.8605 H       1  UNL1        0.1450
     30 H         136.6200  139.3374  161.6523 H       1  UNL1        0.1450
     31 C         139.0579  142.5103  164.3646 C.3     1  UNL1        0.0743
     32 C         137.6686  144.3166  163.1170 C.3     1  UNL1        0.0897
     33 N         138.4463  143.8792  164.3227 N.3     1  UNL1       -0.2702
     34 C         138.6124  144.8110  165.4865 C.3     1  UNL1        0.0897
@<TRIPOS>BOND
     1    32    33    1
     2    33    34    1
     3    33    31    1
     4     1    31    1
     5     1     2    1
     6     2     3    1
     7     3     4    1
     8     4     5   am
     9     5     6    2
    10     5     7   am
    11     7    10    1
    12    10    11   ar
    13    11    12   ar
    14    12    13   ar
    15    13    14   ar
    16    13    15    1
    17    15    16   ar
    18    16    17   ar
    19    17    22    1
    20    22    23    1
    21    22    24    1
    22    22    25    1
    23    17    18   ar
    24    18    19   ar
    25    19    20    1
    26    20    21    1
    27     4     8    1
    28     8    26    1
    29    26    27   am
    30    26    28    2
    31     8     1    1
    32    14    10   ar
    33    19    15   ar
    34    21    12    1
    35     7     9    1
    36    27    29    1
    37    27    30    1
@<TRIPOS>MOLECULE
*****
 34 37 0 0 0
SMALL
GASTEIGER

@<TRIPOS>ATOM
      1 C         139.8424  144.3865  156.2236 C.3     1  UNL1        0.0448
      2 C         138.5955  143.5830  156.4460 C.3     1  UNL1        0.0251
      3 C         138.7676  142.8018  157.7149 C.3     1  UNL1        0.0955
      4 N         140.1209  143.1225  158.2767 N.am    1  UNL1       -0.2571
      5 C         140.7070  142.5621  159.5387 C.2     1  UNL1        0.3094
      6 O         142.0799  142.9778  159.9771 O.2     1  UNL1       -0.2522
      7 N         139.9202  141.5861  160.3623 N.am    1  UNL1       -0.2483
      8 C         140.7852  144.1019  157.3551 C.3     1  UNL1        0.1541
      9 H         139.0191  141.3132  160.0745 H       1  UNL1        0.1583
     10 C         140.5063  141.0258  161.6242 C.ar    1  UNL1        0.1664
     11 N         141.1122  139.6631  161.7857 N.ar    1  UNL1       -0.2282
     12 C         141.5698  139.5250  163.2075 C.ar    1  UNL1        0.0687
     13 C         141.2468  140.8022  163.9247 C.ar    1  UNL1        0.0634
     14 S         140.5895  141.7298  162.9461 S.2     1  UNL1       -0.0502
     15 C         141.5929  140.9556  165.3761 C.ar    1  UNL1        0.0906
     16 N         141.3988  142.0885  166.3400 N.ar    1  UNL1       -0.2425
     17 C         141.9479  141.6648  167.6699 C.ar    1  UNL1        0.0872
     18 S         142.4814  140.2700  167.5281 S.2     1  UNL1       -0.0752
     19 C         142.2620  139.8317  166.1104 C.ar    1  UNL1        0.0269
     20 C         142.5850  138.5546  165.3933 C.3     1  UNL1        0.0409
     21 C         142.2389  138.4011  163.9418 C.3     1  UNL1        0.0517
     22 C         141.9613  142.4907  168.9220 C.3     1  UNL1        0.0412
     23 C         143.3813  142.0806  169.1774 C.3     1  UNL1        0.0065
     24 C         140.5412  142.9008  168.6665 C.3     1  UNL1        0.0065
     25 C         141.9746  143.3167  170.1740 C.3     1  UNL1        0.0065
     26 C         142.1522  144.6930  157.5336 C.2     1  UNL1        0.2376
     27 N         143.3704  143.8519  157.2916 N.am    1  UNL1       -0.3275
     28 O         142.3010  146.1251  157.9540 O.2     1  UNL1       -0.2736
     29 H         143.2728  142.9119  157.0156 H       1  UNL1        0.1450
     30 H         144.2677  144.2398  157.4088 H       1  UNL1        0.1450
     31 C         140.1011  145.3121  155.0720 C.3     1  UNL1        0.0743
     32 C         140.3074  147.7369  154.1621 C.3     1  UNL1        0.0897
     33 N         139.8298  146.7804  155.2143 N.3     1  UNL1       -0.2702
     34 C         139.0807  147.2925  156.4088 C.3     1  UNL1        0.0897
@<TRIPOS>BOND
     1    32    33    1
     2    33    34    1
     3    33    31    1
     4     1    31    1
     5     1     2    1
     6     2     3    1
     7     3     4    1
     8     4     5   am
     9     5     6    2
    10     5     7   am
    11     7    10    1
    12    10    11   ar
    13    11    12   ar
    14    12    13   ar
    15    13    14   ar
    16    13    15    1
    17    15    16   ar
    18    16    17   ar
    19    17    22    1
    20    22    23    1
    21    22    24    1
    22    22    25    1
    23    17    18   ar
    24    18    19   ar
    25    19    20    1
    26    20    21    1
    27     4     8    1
    28     8    26    1
    29    26    27   am
    30    26    28    2
    31     8     1    1
    32    14    10   ar
    33    19    15   ar
    34    21    12    1
    35     7     9    1
    36    27    29    1
    37    27    30    1
@<TRIPOS>MOLECULE
*****
 34 37 0 0 0
SMALL
GASTEIGER

@<TRIPOS>ATOM
      1 C         140.5076  143.7705  155.6725 C.3     1  UNL1        0.0448
      2 C         140.4535  142.2782  155.8143 C.3     1  UNL1        0.0251
      3 C         140.8230  141.9330  157.2265 C.3     1  UNL1        0.0955
      4 N         141.1054  143.2120  157.9575 N.am    1  UNL1       -0.2571
      5 C         141.5115  143.3339  159.3964 C.2     1  UNL1        0.3094
      6 O         141.7615  144.6872  159.9930 O.2     1  UNL1       -0.2522
      7 N         141.6677  142.1025  160.2386 N.am    1  UNL1       -0.2483
      8 C         140.9105  144.3476  156.9971 C.3     1  UNL1        0.1541
      9 H         141.5037  141.2142  159.8470 H       1  UNL1        0.1583
     10 C         142.0738  142.2245  161.6774 C.ar    1  UNL1        0.1664
     11 N         143.3701  142.7847  162.1832 N.ar    1  UNL1       -0.2282
     12 C         143.3523  142.7141  163.6815 C.ar    1  UNL1        0.0687
     13 C         142.0451  142.1102  164.1016 C.ar    1  UNL1        0.0634
     14 S         141.2549  141.8076  162.8630 S.2     1  UNL1       -0.0502
     15 C         141.7431  141.9139  165.5577 C.ar    1  UNL1        0.0906
     16 N         140.5489  141.3485  166.2678 N.ar    1  UNL1       -0.2425
     17 C         140.8161  141.4067  167.7427 C.ar    1  UNL1        0.0872
     18 S         142.1755  142.0080  167.9441 S.2     1  UNL1       -0.0752
     19 C         142.7484  142.3215  166.5937 C.ar    1  UNL1        0.0269
     20 C         144.0556  142.9253  166.1736 C.3     1  UNL1        0.0409
     21 C         144.3576  143.1217  164.7174 C.3     1  UNL1        0.0517
     22 C         139.8871  140.9447  168.8259 C.3     1  UNL1        0.0412
     23 C         140.3971  142.0305  169.7264 C.3     1  UNL1        0.0065
     24 C         139.3771  139.8589  167.9254 C.3     1  UNL1        0.0065
     25 C         138.9581  140.4827  169.9092 C.3     1  UNL1        0.0065
     26 C         141.0875  145.8046  157.3070 C.2     1  UNL1        0.2376
     27 N         142.4591  146.3562  157.5608 N.am    1  UNL1       -0.3275
     28 O         139.8929  146.7099  157.3630 O.2     1  UNL1       -0.2736
     29 H         143.2432  145.7620  157.5241 H       1  UNL1        0.1450
     30 H         142.5753  147.3124  157.7642 H       1  UNL1        0.1450
     31 C         140.2109  144.5490  154.4252 C.3     1  UNL1        0.0743
     32 C         142.6043  145.2931  153.7416 C.3     1  UNL1        0.0897
     33 N         141.1571  145.6180  153.9654 N.3     1  UNL1       -0.2702
     34 C         140.6564  147.0122  153.7294 C.3     1  UNL1        0.0897
@<TRIPOS>BOND
     1    32    33    1
     2    33    34    1
     3    33    31    1
     4     1    31    1
     5     1     2    1
     6     2     3    1
     7     3     4    1
     8     4     5   am
     9     5     6    2
    10     5     7   am
    11     7    10    1
    12    10    11   ar
    13    11    12   ar
    14    12    13   ar
    15    13    14   ar
    16    13    15    1
    17    15    16   ar
    18    16    17   ar
    19    17    22    1
    20    22    23    1
    21    22    24    1
    22    22    25    1
    23    17    18   ar
    24    18    19   ar
    25    19    20    1
    26    20    21    1
    27     4     8    1
    28     8    26    1
    29    26    27   am
    30    26    28    2
    31     8     1    1
    32    14    10   ar
    33    19    15   ar
    34    21    12    1
    35     7     9    1
    36    27    29    1
    37    27    30    1
@<TRIPOS>MOLECULE
*****
 34 37 0 0 0
SMALL
GASTEIGER

@<TRIPOS>ATOM
      1 C         141.2160  135.7942  154.7080 C.3     1  UNL1        0.0448
      2 C         139.8521  136.3750  154.9373 C.3     1  UNL1        0.0251
      3 C         139.9424  137.3285  156.0916 C.3     1  UNL1        0.0955
      4 N         141.3620  137.3370  156.5758 N.am    1  UNL1       -0.2571
      5 C         141.9001  138.1510  157.7151 C.2     1  UNL1        0.3094
      6 O         143.3503  138.0550  158.0862 O.2     1  UNL1       -0.2522
      7 N         140.9880  139.0609  158.4834 N.am    1  UNL1       -0.2483
      8 C         142.1492  136.3888  155.7207 C.3     1  UNL1        0.1541
      9 H         140.0362  139.1239  158.2398 H       1  UNL1        0.1583
     10 C         141.5261  139.8748  159.6227 C.ar    1  UNL1        0.1664
     11 N         142.1342  141.2421  159.5195 N.ar    1  UNL1       -0.2282
     12 C         142.5345  141.6766  160.8983 C.ar    1  UNL1        0.0687
     13 C         142.1739  140.5778  161.8535 C.ar    1  UNL1        0.0634
     14 S         141.5506  139.4642  161.0652 S.2     1  UNL1       -0.0502
     15 C         142.4596  140.7332  163.3179 C.ar    1  UNL1        0.0906
     16 N         142.2187  139.8276  164.4891 N.ar    1  UNL1       -0.2425
     17 C         142.7161  140.5221  165.7221 C.ar    1  UNL1        0.0872
     18 S         143.2645  141.8570  165.3128 S.2     1  UNL1       -0.0752
     19 C         143.1059  141.9874  163.8269 C.ar    1  UNL1        0.0269
     20 C         143.4665  143.0862  162.8717 C.3     1  UNL1        0.0409
     21 C         143.1808  142.9308  161.4073 C.3     1  UNL1        0.0517
     22 C         142.6729  139.9775  167.1190 C.3     1  UNL1        0.0412
     23 C         143.2167  138.6694  166.6258 C.3     1  UNL1        0.0065
     24 C         142.1291  141.2856  167.6122 C.3     1  UNL1        0.0065
     25 C         142.6296  139.4328  168.5159 C.3     1  UNL1        0.0065
     26 C         143.6126  136.0880  155.8547 C.2     1  UNL1        0.2376
     27 N         144.6295  137.0931  155.4012 N.am    1  UNL1       -0.3275
     28 O         144.0591  134.7821  156.4422 O.2     1  UNL1       -0.2736
     29 H         144.3365  137.9503  155.0156 H       1  UNL1        0.1450
     30 H         145.5900  136.8957  155.4892 H       1  UNL1        0.1450
     31 C         141.5823  134.7944  153.6515 C.3     1  UNL1        0.0743
     32 C         142.2883  132.3777  153.0106 C.3     1  UNL1        0.0897
     33 N         141.7190  133.3436  154.0070 N.3     1  UNL1       -0.2702
     34 C         141.2865  132.8587  155.3589 C.3     1  UNL1        0.0897
@<TRIPOS>BOND
     1    32    33    1
     2    33    34    1
     3    33    31    1
     4     1    31    1
     5     1     2    1
     6     2     3    1
     7     3     4    1
     8     4     5   am
     9     5     6    2
    10     5     7   am
    11     7    10    1
    12    10    11   ar
    13    11    12   ar
    14    12    13   ar
    15    13    14   ar
    16    13    15    1
    17    15    16   ar
    18    16    17   ar
    19    17    22    1
    20    22    23    1
    21    22    24    1
    22    22    25    1
    23    17    18   ar
    24    18    19   ar
    25    19    20    1
    26    20    21    1
    27     4     8    1
    28     8    26    1
    29    26    27   am
    30    26    28    2
    31     8     1    1
    32    14    10   ar
    33    19    15   ar
    34    21    12    1
    35     7     9    1
    36    27    29    1
    37    27    30    1
@<TRIPOS>MOLECULE
*****
 34 37 0 0 0
SMALL
GASTEIGER

@<TRIPOS>ATOM
      1 C         137.9685  142.6815  154.6992 C.3     1  UNL1        0.0448
      2 C         138.6382  144.0182  154.8205 C.3     1  UNL1        0.0251
      3 C         139.0160  144.2187  156.2582 C.3     1  UNL1        0.0955
      4 N         138.5798  143.0059  157.0255 N.am    1  UNL1       -0.2571
      5 C         138.7594  142.7825  158.4979 C.2     1  UNL1        0.3094
      6 O         138.2693  141.5131  159.1291 O.2     1  UNL1       -0.2522
      7 N         139.4292  143.8283  159.3391 N.am    1  UNL1       -0.2483
      8 C         137.9324  142.0559  156.0621 C.3     1  UNL1        0.1541
      9 H         139.7509  144.6615  158.9248 H       1  UNL1        0.1583
     10 C         139.6088  143.6048  160.8114 C.ar    1  UNL1        0.1664
     11 N         138.9998  144.4264  161.9087 N.ar    1  UNL1       -0.2282
     12 C         139.4436  143.8497  163.2203 C.ar    1  UNL1        0.0687
     13 C         140.3270  142.6718  162.9337 C.ar    1  UNL1        0.0634
     14 S         140.4291  142.5204  161.4449 S.2     1  UNL1       -0.0502
     15 C         140.9242  141.8892  164.0655 C.ar    1  UNL1        0.0906
     16 N         141.8257  140.6906  164.0912 N.ar    1  UNL1       -0.2425
     17 C         142.0967  140.3451  165.5255 C.ar    1  UNL1        0.0872
     18 S         141.3627  141.3303  166.3862 S.2     1  UNL1       -0.0752
     19 C         140.6381  142.2846  165.4839 C.ar    1  UNL1        0.0269
     20 C         139.7548  143.4625  165.7705 C.3     1  UNL1        0.0409
     21 C         139.1575  144.2451  164.6387 C.3     1  UNL1        0.0517
     22 C         142.9515  139.2133  166.0135 C.3     1  UNL1        0.0412
     23 C         142.5620  139.5286  167.4273 C.3     1  UNL1        0.0065
     24 C         143.3410  138.8979  164.5997 C.3     1  UNL1        0.0065
     25 C         143.8063  138.0814  166.5014 C.3     1  UNL1        0.0065
     26 C         137.3510  140.7155  156.4018 C.2     1  UNL1        0.2376
     27 N         135.9765  140.6228  156.9953 N.am    1  UNL1       -0.3275
     28 O         138.1441  139.4679  156.1480 O.2     1  UNL1       -0.2736
     29 H         135.4560  141.4416  157.1619 H       1  UNL1        0.1450
     30 H         135.5949  139.7430  157.2183 H       1  UNL1        0.1450
     31 C         137.4295  142.0766  153.4368 C.3     1  UNL1        0.0743
     32 C         135.6988  143.5829  152.2182 C.3     1  UNL1        0.0897
     33 N         136.0166  142.3534  153.0163 N.3     1  UNL1       -0.2702
     34 C         134.9213  141.4005  153.3940 C.3     1  UNL1        0.0897
@<TRIPOS>BOND
     1    32    33    1
     2    33    34    1
     3    33    31    1
     4     1    31    1
     5     1     2    1
     6     2     3    1
     7     3     4    1
     8     4     5   am
     9     5     6    2
    10     5     7   am
    11     7    10    1
    12    10    11   ar
    13    11    12   ar
    14    12    13   ar
    15    13    14   ar
    16    13    15    1
    17    15    16   ar
    18    16    17   ar
    19    17    22    1
    20    22    23    1
    21    22    24    1
    22    22    25    1
    23    17    18   ar
    24    18    19   ar
    25    19    20    1
    26    20    21    1
    27     4     8    1
    28     8    26    1
    29    26    27   am
    30    26    28    2
    31     8     1    1
    32    14    10   ar
    33    19    15   ar
    34    21    12    1
    35     7     9    1
    36    27    29    1
    37    27    30    1
@<TRIPOS>MOLECULE
*****
 34 37 0 0 0
SMALL
GASTEIGER

@<TRIPOS>ATOM
      1 C         141.6670  140.6050  156.6553 C.3     1  UNL1        0.0448
      2 C         140.4523  141.4829  156.7176 C.3     1  UNL1        0.0251
      3 C         139.9452  141.4732  158.1292 C.3     1  UNL1        0.0955
      4 N         140.8464  140.5893  158.9394 N.am    1  UNL1       -0.2571
      5 C         140.7078  140.2939  160.4035 C.2     1  UNL1        0.3094
      6 O         141.6904  139.3858  161.0817 O.2     1  UNL1       -0.2522
      7 N         139.5866  140.9064  161.1894 N.am    1  UNL1       -0.2483
      8 C         141.9105  140.0527  158.0285 C.3     1  UNL1        0.1541
      9 H         138.9416  141.5024  160.7443 H       1  UNL1        0.1583
     10 C         139.4480  140.6109  162.6535 C.ar    1  UNL1        0.1664
     11 N         138.5307  139.5936  163.2647 N.ar    1  UNL1       -0.2282
     12 C         138.7183  139.6349  164.7523 C.ar    1  UNL1        0.0687
     13 C         139.7514  140.6777  165.0606 C.ar    1  UNL1        0.0634
     14 S         140.2025  141.2810  163.7634 S.2     1  UNL1       -0.0502
     15 C         140.1480  140.9433  166.4826 C.ar    1  UNL1        0.0906
     16 N         141.1298  141.9019  167.0885 N.ar    1  UNL1       -0.2425
     17 C         141.1001  141.7171  168.5767 C.ar    1  UNL1        0.0872
     18 S         140.0999  140.6442  168.8907 S.2     1  UNL1       -0.0752
     19 C         139.5115  140.1659  167.5964 C.ar    1  UNL1        0.0269
     20 C         138.4784  139.1231  167.2882 C.3     1  UNL1        0.0409
     21 C         138.0817  138.8575  165.8661 C.3     1  UNL1        0.0517
     22 C         141.9255  142.4725  169.5757 C.3     1  UNL1        0.0412
     23 C         140.8061  143.4541  169.7584 C.3     1  UNL1        0.0065
     24 C         143.0449  141.4909  169.3930 C.3     1  UNL1        0.0065
     25 C         142.7510  143.2279  170.5747 C.3     1  UNL1        0.0065
     26 C         143.0229  139.1264  158.4218 C.2     1  UNL1        0.2376
     27 N         144.1582  139.6319  159.2619 N.am    1  UNL1       -0.3275
     28 O         143.0000  137.6947  157.9750 O.2     1  UNL1       -0.2736
     29 H         144.1732  140.5716  159.5551 H       1  UNL1        0.1450
     30 H         144.8883  139.0239  159.5200 H       1  UNL1        0.1450
     31 C         142.4930  140.3280  155.4343 C.3     1  UNL1        0.0743
     32 C         144.9253  139.4770  155.1030 C.3     1  UNL1        0.0897
     33 N         143.9715  140.5796  155.4562 N.3     1  UNL1       -0.2702
     34 C         144.4965  141.9338  155.8311 C.3     1  UNL1        0.0897
@<TRIPOS>BOND
     1    32    33    1
     2    33    34    1
     3    33    31    1
     4     1    31    1
     5     1     2    1
     6     2     3    1
     7     3     4    1
     8     4     5   am
     9     5     6    2
    10     5     7   am
    11     7    10    1
    12    10    11   ar
    13    11    12   ar
    14    12    13   ar
    15    13    14   ar
    16    13    15    1
    17    15    16   ar
    18    16    17   ar
    19    17    22    1
    20    22    23    1
    21    22    24    1
    22    22    25    1
    23    17    18   ar
    24    18    19   ar
    25    19    20    1
    26    20    21    1
    27     4     8    1
    28     8    26    1
    29    26    27   am
    30    26    28    2
    31     8     1    1
    32    14    10   ar
    33    19    15   ar
    34    21    12    1
    35     7     9    1
    36    27    29    1
    37    27    30    1
