@<TRIPOS>MOLECULE
*****
 26 29 0 0 0
SMALL
GASTEIGER

@<TRIPOS>ATOM
      1 N         139.8887  139.7398  167.0355 N.am    1  UNL1       -0.2413
      2 C         138.5585  139.1579  167.4122 C.3     1  UNL1        0.1212
      3 C         138.0640  138.3434  166.2537 C.3     1  UNL1        0.1169
      4 N         139.0887  138.4219  165.1610 N.am    1  UNL1       -0.2606
      5 C         140.2164  139.2849  165.6442 C.2     1  UNL1        0.3111
      6 O         141.4545  139.6321  164.8718 O.2     1  UNL1       -0.2520
      7 C         141.0239  142.7645  169.3403 C.ar    1  UNL1        0.0970
      8 C         140.1711  141.8826  168.4772 C.ar    1  UNL1        0.0275
      9 C         140.7414  140.6217  167.8986 C.ar    1  UNL1        0.0562
     10 C         142.1646  140.2426  168.1832 C.ar    1  UNL1        0.0173
     11 C         143.0174  141.1245  169.0464 C.ar    1  UNL1        0.0316
     12 C         142.4471  142.3854  169.6249 C.ar    1  UNL1        0.1497
     13 F         143.2999  143.2673  170.4881 F       1  UNL1       -0.2035
     14 N         139.8833  145.2864  170.4975 N.1     1  UNL1       -0.1908
     15 C         140.4536  144.0255  169.9189 C.1     1  UNL1        0.1027
     16 C         139.0011  137.7546  163.8205 C.3     1  UNL1        0.1123
     17 C         138.4844  138.5161  162.6359 C.3     1  UNL1        0.0944
     18 N         138.6435  140.0064  162.5748 N.3     1  UNL1       -0.2637
     19 C         137.6899  141.0187  163.1369 C.3     1  UNL1        0.0992
     20 C         138.2412  142.3840  162.8504 C.ar    1  UNL1       -0.0088
     21 C         137.7318  143.7588  163.1670 C.ar    1  UNL1       -0.0032
     22 C         138.5168  144.9651  162.7445 C.ar    1  UNL1       -0.0003
     23 C         139.8110  144.7966  162.0053 C.ar    1  UNL1       -0.0003
     24 C         140.3204  143.4218  161.6886 C.ar    1  UNL1       -0.0032
     25 C         139.5355  142.2155  162.1111 C.ar    1  UNL1       -0.0088
     26 C         139.7841  140.7460  161.9409 C.3     1  UNL1        0.0992
@<TRIPOS>BOND
     1    14    15    3
     2    15     7    1
     3     7     8   ar
     4     8     9   ar
     5     9     1    1
     6     1     2    1
     7     2     3    1
     8     3     4    1
     9     4    16    1
    10    16    17    1
    11    17    18    1
    12    18    19    1
    13    19    20    1
    14    20    21   ar
    15    21    22   ar
    16    22    23   ar
    17    23    24   ar
    18    24    25   ar
    19    25    26    1
    20     4     5   am
    21     5     6    2
    22     9    10   ar
    23    10    11   ar
    24    11    12   ar
    25    12    13    1
    26    12     7   ar
    27     5     1   am
    28    26    18    1
    29    25    20   ar
@<TRIPOS>MOLECULE
*****
 26 29 0 0 0
SMALL
GASTEIGER

@<TRIPOS>ATOM
      1 N         140.6220  139.2595  166.1130 N.am    1  UNL1       -0.2413
      2 C         141.7840  138.7200  165.3330 C.3     1  UNL1        0.1212
      3 C         141.2469  138.0613  164.0969 C.3     1  UNL1        0.1169
      4 N         139.7528  138.1939  164.1131 N.am    1  UNL1       -0.2606
      5 C         139.3666  138.9344  165.3591 C.2     1  UNL1        0.3111
      6 O         137.9702  139.2878  165.7777 O.2     1  UNL1       -0.2520
      7 C         142.0448  141.4403  169.1079 C.ar    1  UNL1        0.0970
      8 C         141.9654  140.7048  167.8030 C.ar    1  UNL1        0.0275
      9 C         140.7014  139.9951  167.4178 C.ar    1  UNL1        0.0562
     10 C         139.5166  140.0209  168.3375 C.ar    1  UNL1        0.0173
     11 C         139.5960  140.7564  169.6423 C.ar    1  UNL1        0.0316
     12 C         140.8600  141.4661  170.0275 C.ar    1  UNL1        0.1497
     13 F         140.9394  142.2017  171.3325 F       1  UNL1       -0.2035
     14 N         144.5730  142.8597  169.8784 N.1     1  UNL1       -0.1908
     15 C         143.3089  142.1500  169.4932 C.1     1  UNL1        0.1027
     16 C         138.8104  137.6767  163.0669 C.3     1  UNL1        0.1123
     17 C         138.0579  138.6373  162.1946 C.3     1  UNL1        0.0944
     18 N         138.3615  140.1048  162.2590 N.3     1  UNL1       -0.2637
     19 C         137.4665  141.1663  162.8265 C.3     1  UNL1        0.0992
     20 C         138.1653  142.4861  162.6853 C.ar    1  UNL1       -0.0088
     21 C         137.7648  143.8799  163.0684 C.ar    1  UNL1       -0.0032
     22 C         138.6912  145.0279  162.7968 C.ar    1  UNL1       -0.0003
     23 C         140.0182  144.7820  162.1421 C.ar    1  UNL1       -0.0003
     24 C         140.4187  143.3882  161.7590 C.ar    1  UNL1       -0.0032
     25 C         139.4923  142.2402  162.0306 C.ar    1  UNL1       -0.0088
     26 C         139.6135  140.7685  161.7671 C.3     1  UNL1        0.0992
@<TRIPOS>BOND
     1    14    15    3
     2    15     7    1
     3     7     8   ar
     4     8     9   ar
     5     9     1    1
     6     1     2    1
     7     2     3    1
     8     3     4    1
     9     4    16    1
    10    16    17    1
    11    17    18    1
    12    18    19    1
    13    19    20    1
    14    20    21   ar
    15    21    22   ar
    16    22    23   ar
    17    23    24   ar
    18    24    25   ar
    19    25    26    1
    20     4     5   am
    21     5     6    2
    22     9    10   ar
    23    10    11   ar
    24    11    12   ar
    25    12    13    1
    26    12     7   ar
    27     5     1   am
    28    26    18    1
    29    25    20   ar
@<TRIPOS>MOLECULE
*****
 26 29 0 0 0
SMALL
GASTEIGER

@<TRIPOS>ATOM
      1 N         139.5822  140.2228  165.8145 N.am    1  UNL1       -0.2413
      2 C         139.1055  139.0500  165.0100 C.3     1  UNL1        0.1212
      3 C         138.1881  139.5638  163.9402 C.3     1  UNL1        0.1169
      4 N         138.0979  141.0543  164.0835 N.am    1  UNL1       -0.2606
      5 C         138.9594  141.4615  165.2419 C.2     1  UNL1        0.3111
      6 O         139.1626  142.8617  165.7403 O.2     1  UNL1       -0.2520
      7 C         141.0909  140.7999  169.4394 C.ar    1  UNL1        0.0970
      8 C         140.1557  140.8561  168.2681 C.ar    1  UNL1        0.0275
      9 C         140.5173  140.1667  166.9859 C.ar    1  UNL1        0.0562
     10 C         141.8143  139.4213  166.8751 C.ar    1  UNL1        0.0173
     11 C         142.7495  139.3652  168.0465 C.ar    1  UNL1        0.0316
     12 C         142.3879  140.0545  169.3286 C.ar    1  UNL1        0.1497
     13 F         143.3231  139.9984  170.5001 F       1  UNL1       -0.2035
     14 N         140.3676  142.1786  172.0039 N.1     1  UNL1       -0.1908
     15 C         140.7292  141.4893  170.7217 C.1     1  UNL1        0.1027
     16 C         137.2882  141.9757  163.2201 C.3     1  UNL1        0.1123
     17 C         137.9668  142.8226  162.1846 C.3     1  UNL1        0.0944
     18 N         139.4020  143.2199  162.3637 N.3     1  UNL1       -0.2637
     19 C         140.5931  142.4956  161.8100 C.3     1  UNL1        0.0992
     20 C         141.8255  143.2394  162.2320 C.ar    1  UNL1       -0.0088
     21 C         143.2832  142.9915  161.9799 C.ar    1  UNL1       -0.0032
     22 C         144.3114  143.9277  162.5422 C.ar    1  UNL1       -0.0003
     23 C         143.8819  145.1118  163.3567 C.ar    1  UNL1       -0.0003
     24 C         142.4242  145.3597  163.6088 C.ar    1  UNL1       -0.0032
     25 C         141.3960  144.4235  163.0465 C.ar    1  UNL1       -0.0088
     26 C         139.8982  144.4115  163.1279 C.3     1  UNL1        0.0992
@<TRIPOS>BOND
     1    14    15    3
     2    15     7    1
     3     7     8   ar
     4     8     9   ar
     5     9     1    1
     6     1     2    1
     7     2     3    1
     8     3     4    1
     9     4    16    1
    10    16    17    1
    11    17    18    1
    12    18    19    1
    13    19    20    1
    14    20    21   ar
    15    21    22   ar
    16    22    23   ar
    17    23    24   ar
    18    24    25   ar
    19    25    26    1
    20     4     5   am
    21     5     6    2
    22     9    10   ar
    23    10    11   ar
    24    11    12   ar
    25    12    13    1
    26    12     7   ar
    27     5     1   am
    28    26    18    1
    29    25    20   ar
@<TRIPOS>MOLECULE
*****
 26 29 0 0 0
SMALL
GASTEIGER

@<TRIPOS>ATOM
      1 N         143.2100  140.7363  165.9468 N.am    1  UNL1       -0.2413
      2 C         143.2228  139.5538  165.0240 C.3     1  UNL1        0.1212
      3 C         143.9245  139.9586  163.7615 C.3     1  UNL1        0.1169
      4 N         144.3453  141.3913  163.9041 N.am    1  UNL1       -0.2606
      5 C         143.9037  141.8719  165.2546 C.2     1  UNL1        0.3111
      6 O         144.1182  143.2468  165.8147 O.2     1  UNL1       -0.2520
      7 C         141.3802  142.0801  169.2019 C.ar    1  UNL1        0.0970
      8 C         141.9812  142.0403  167.8281 C.ar    1  UNL1        0.0275
      9 C         142.6089  140.7761  167.3205 C.ar    1  UNL1        0.0562
     10 C         142.6356  139.5517  168.1865 C.ar    1  UNL1        0.0173
     11 C         142.0345  139.5914  169.5603 C.ar    1  UNL1        0.0316
     12 C         141.4068  140.8556  170.0679 C.ar    1  UNL1        0.1497
     13 F         140.8057  140.8954  171.4417 F       1  UNL1       -0.2035
     14 N         140.1247  144.6085  170.2173 N.1     1  UNL1       -0.1908
     15 C         140.7524  143.3443  169.7096 C.1     1  UNL1        0.1027
     16 C         145.0789  142.2012  162.8765 C.3     1  UNL1        0.1123
     17 C         144.3407  143.2151  162.0537 C.3     1  UNL1        0.0944
     18 N         142.8562  143.3671  162.2057 N.3     1  UNL1       -0.2637
     19 C         142.1548  144.4422  162.9817 C.3     1  UNL1        0.0992
     20 C         140.6775  144.2102  162.8640 C.ar    1  UNL1       -0.0088
     21 C         139.4978  144.9511  163.4200 C.ar    1  UNL1       -0.0032
     22 C         138.1064  144.4735  163.1272 C.ar    1  UNL1       -0.0003
     23 C         137.8947  143.2550  162.2784 C.ar    1  UNL1       -0.0003
     24 C         139.0744  142.5142  161.7223 C.ar    1  UNL1       -0.0032
     25 C         140.4659  142.9918  162.0151 C.ar    1  UNL1       -0.0088
     26 C         141.8123  142.4707  161.6083 C.3     1  UNL1        0.0992
@<TRIPOS>BOND
     1    14    15    3
     2    15     7    1
     3     7     8   ar
     4     8     9   ar
     5     9     1    1
     6     1     2    1
     7     2     3    1
     8     3     4    1
     9     4    16    1
    10    16    17    1
    11    17    18    1
    12    18    19    1
    13    19    20    1
    14    20    21   ar
    15    21    22   ar
    16    22    23   ar
    17    23    24   ar
    18    24    25   ar
    19    25    26    1
    20     4     5   am
    21     5     6    2
    22     9    10   ar
    23    10    11   ar
    24    11    12   ar
    25    12    13    1
    26    12     7   ar
    27     5     1   am
    28    26    18    1
    29    25    20   ar
@<TRIPOS>MOLECULE
*****
 26 29 0 0 0
SMALL
GASTEIGER

@<TRIPOS>ATOM
      1 N         140.3160  138.6796  163.8069 N.am    1  UNL1       -0.2413
      2 C         139.5989  138.7068  162.4897 C.3     1  UNL1        0.1212
      3 C         140.6004  138.4197  161.4105 C.3     1  UNL1        0.1169
      4 N         141.9366  138.2151  162.0608 N.am    1  UNL1       -0.2606
      5 C         141.7608  138.3757  163.5418 C.2     1  UNL1        0.3111
      6 O         142.8403  138.2539  164.5762 O.2     1  UNL1       -0.2520
      7 C         139.6784  140.1571  167.4345 C.ar    1  UNL1        0.0970
      8 C         140.2974  139.9217  166.0887 C.ar    1  UNL1        0.0275
      9 C         139.6970  138.9150  165.1527 C.ar    1  UNL1        0.0562
     10 C         138.4776  138.1437  165.5626 C.ar    1  UNL1        0.0173
     11 C         137.8585  138.3791  166.9084 C.ar    1  UNL1        0.0316
     12 C         138.4589  139.3857  167.8444 C.ar    1  UNL1        0.1497
     13 F         137.8399  139.6212  169.1904 F       1  UNL1       -0.2035
     14 N         140.8791  142.1705  169.3066 N.1     1  UNL1       -0.1908
     15 C         140.2788  141.1638  168.3706 C.1     1  UNL1        0.1027
     16 C         143.2227  137.9043  161.3542 C.3     1  UNL1        0.1123
     17 C         144.1907  139.0061  161.0393 C.3     1  UNL1        0.0944
     18 N         144.0967  140.3166  161.7631 N.3     1  UNL1       -0.2637
     19 C         144.7137  140.6359  163.0925 C.3     1  UNL1        0.0992
     20 C         144.3676  142.0545  163.4356 C.ar    1  UNL1       -0.0088
     21 C         144.7017  142.9106  164.6210 C.ar    1  UNL1       -0.0032
     22 C         144.2048  144.3242  164.6891 C.ar    1  UNL1       -0.0003
     23 C         143.3737  144.8817  163.5717 C.ar    1  UNL1       -0.0003
     24 C         143.0396  144.0256  162.3862 C.ar    1  UNL1       -0.0032
     25 C         143.5365  142.6120  162.3182 C.ar    1  UNL1       -0.0088
     26 C         143.3691  141.5379  161.2846 C.3     1  UNL1        0.0992
@<TRIPOS>BOND
     1    14    15    3
     2    15     7    1
     3     7     8   ar
     4     8     9   ar
     5     9     1    1
     6     1     2    1
     7     2     3    1
     8     3     4    1
     9     4    16    1
    10    16    17    1
    11    17    18    1
    12    18    19    1
    13    19    20    1
    14    20    21   ar
    15    21    22   ar
    16    22    23   ar
    17    23    24   ar
    18    24    25   ar
    19    25    26    1
    20     4     5   am
    21     5     6    2
    22     9    10   ar
    23    10    11   ar
    24    11    12   ar
    25    12    13    1
    26    12     7   ar
    27     5     1   am
    28    26    18    1
    29    25    20   ar
@<TRIPOS>MOLECULE
*****
 26 29 0 0 0
SMALL
GASTEIGER

@<TRIPOS>ATOM
      1 N         140.3842  139.6660  166.6508 N.am    1  UNL1       -0.2413
      2 C         138.9798  139.2554  166.3205 C.3     1  UNL1        0.1212
      3 C         138.9778  138.6840  164.9336 C.3     1  UNL1        0.1169
      4 N         140.3811  138.7415  164.4066 N.am    1  UNL1       -0.2606
      5 C         141.2502  139.3484  165.4679 C.2     1  UNL1        0.3111
      6 O         142.7263  139.5945  165.3645 O.2     1  UNL1       -0.2520
      7 C         140.8353  142.2801  169.6024 C.ar    1  UNL1        0.0970
      8 C         140.3773  141.6607  168.3153 C.ar    1  UNL1        0.0275
      9 C         140.8421  140.2854  167.9378 C.ar    1  UNL1        0.0562
     10 C         141.7648  139.5295  168.8473 C.ar    1  UNL1        0.0173
     11 C         142.2227  140.1489  170.1344 C.ar    1  UNL1        0.0316
     12 C         141.7580  141.5241  170.5120 C.ar    1  UNL1        0.1497
     13 F         142.2159  142.1436  171.7992 F       1  UNL1       -0.2035
     14 N         139.9058  145.0307  170.3577 N.1     1  UNL1       -0.1908
     15 C         140.3705  143.6554  169.9801 C.1     1  UNL1        0.1027
     16 C         140.8354  138.2742  163.0556 C.3     1  UNL1        0.1123
     17 C         141.1406  139.2738  161.9798 C.3     1  UNL1        0.0944
     18 N         141.5598  140.6664  162.3469 N.3     1  UNL1       -0.2637
     19 C         140.6518  141.7679  162.8076 C.3     1  UNL1        0.0992
     20 C         141.4914  142.9844  163.0633 C.ar    1  UNL1       -0.0088
     21 C         141.1410  144.3652  163.5327 C.ar    1  UNL1       -0.0032
     22 C         142.2175  145.3964  163.6993 C.ar    1  UNL1       -0.0003
     23 C         143.6444  145.0467  163.3966 C.ar    1  UNL1       -0.0003
     24 C         143.9948  143.6658  162.9273 C.ar    1  UNL1       -0.0032
     25 C         142.9184  142.6346  162.7607 C.ar    1  UNL1       -0.0088
     26 C         142.9606  141.2021  162.3179 C.3     1  UNL1        0.0992
@<TRIPOS>BOND
     1    14    15    3
     2    15     7    1
     3     7     8   ar
     4     8     9   ar
     5     9     1    1
     6     1     2    1
     7     2     3    1
     8     3     4    1
     9     4    16    1
    10    16    17    1
    11    17    18    1
    12    18    19    1
    13    19    20    1
    14    20    21   ar
    15    21    22   ar
    16    22    23   ar
    17    23    24   ar
    18    24    25   ar
    19    25    26    1
    20     4     5   am
    21     5     6    2
    22     9    10   ar
    23    10    11   ar
    24    11    12   ar
    25    12    13    1
    26    12     7   ar
    27     5     1   am
    28    26    18    1
    29    25    20   ar
@<TRIPOS>MOLECULE
*****
 26 29 0 0 0
SMALL
GASTEIGER

@<TRIPOS>ATOM
      1 N         143.0236  140.6384  166.3656 N.am    1  UNL1       -0.2413
      2 C         143.2387  139.2127  165.9521 C.3     1  UNL1        0.1212
      3 C         143.8636  139.2147  164.5884 C.3     1  UNL1        0.1169
      4 N         144.0347  140.6418  164.1591 N.am    1  UNL1       -0.2606
      5 C         143.5156  141.5216  165.2574 C.2     1  UNL1        0.3111
      6 O         143.4924  143.0214  165.2491 O.2     1  UNL1       -0.2520
      7 C         140.5269  140.9723  169.4322 C.ar    1  UNL1        0.0970
      8 C         141.1282  140.5108  168.1378 C.ar    1  UNL1        0.0275
      9 C         142.4222  141.0999  167.6598 C.ar    1  UNL1        0.0562
     10 C         143.1149  142.1505  168.4762 C.ar    1  UNL1        0.0173
     11 C         142.5135  142.6121  169.7706 C.ar    1  UNL1        0.0316
     12 C         141.2195  142.0230  170.2485 C.ar    1  UNL1        0.1497
     13 F         140.6181  142.4845  171.5430 F       1  UNL1       -0.2035
     14 N         137.9388  139.7941  170.3882 N.1     1  UNL1       -0.1908
     15 C         139.2328  140.3832  169.9102 C.1     1  UNL1        0.1027
     16 C         144.6218  141.1072  162.8596 C.3     1  UNL1        0.1123
     17 C         143.7205  141.5455  161.7437 C.3     1  UNL1        0.0944
     18 N         142.3174  141.9846  162.0413 N.3     1  UNL1       -0.2637
     19 C         141.8425  143.4030  162.1536 C.3     1  UNL1        0.0992
     20 C         140.3744  143.3774  162.4606 C.ar    1  UNL1       -0.0088
     21 C         139.3756  144.4747  162.6796 C.ar    1  UNL1       -0.0032
     22 C         137.9443  144.1379  162.9760 C.ar    1  UNL1       -0.0003
     23 C         137.5119  142.7036  163.0534 C.ar    1  UNL1       -0.0003
     24 C         138.5108  141.6063  162.8344 C.ar    1  UNL1       -0.0032
     25 C         139.9420  141.9432  162.5379 C.ar    1  UNL1       -0.0088
     26 C         141.1428  141.0824  162.2788 C.3     1  UNL1        0.0992
@<TRIPOS>BOND
     1    14    15    3
     2    15     7    1
     3     7     8   ar
     4     8     9   ar
     5     9     1    1
     6     1     2    1
     7     2     3    1
     8     3     4    1
     9     4    16    1
    10    16    17    1
    11    17    18    1
    12    18    19    1
    13    19    20    1
    14    20    21   ar
    15    21    22   ar
    16    22    23   ar
    17    23    24   ar
    18    24    25   ar
    19    25    26    1
    20     4     5   am
    21     5     6    2
    22     9    10   ar
    23    10    11   ar
    24    11    12   ar
    25    12    13    1
    26    12     7   ar
    27     5     1   am
    28    26    18    1
    29    25    20   ar
@<TRIPOS>MOLECULE
*****
 26 29 0 0 0
SMALL
GASTEIGER

@<TRIPOS>ATOM
      1 N         139.2916  139.8803  166.0073 N.am    1  UNL1       -0.2413
      2 C         139.3638  138.5126  165.3955 C.3     1  UNL1        0.1212
      3 C         138.8131  138.5981  164.0029 C.3     1  UNL1        0.1169
      4 N         138.4005  140.0187  163.7540 N.am    1  UNL1       -0.2606
      5 C         138.6963  140.8110  164.9928 C.2     1  UNL1        0.3111
      6 O         138.4414  142.2769  165.1837 O.2     1  UNL1       -0.2520
      7 C         141.4896  141.3289  168.9771 C.ar    1  UNL1        0.0970
      8 C         141.0447  140.9574  167.5937 C.ar    1  UNL1        0.0275
      9 C         139.7366  140.2518  167.3907 C.ar    1  UNL1        0.0562
     10 C         138.8736  139.9178  168.5712 C.ar    1  UNL1        0.0173
     11 C         139.3185  140.2894  169.9547 C.ar    1  UNL1        0.0316
     12 C         140.6266  140.9949  170.1576 C.ar    1  UNL1        0.1497
     13 F         141.0716  141.3665  171.5411 F       1  UNL1       -0.2035
     14 N         144.1058  142.7400  169.3831 N.1     1  UNL1       -0.1908
     15 C         142.7978  142.0345  169.1801 C.1     1  UNL1        0.1027
     16 C         137.7980  140.5530  162.4885 C.3     1  UNL1        0.1123
     17 C         138.6439  141.3326  161.5260 C.3     1  UNL1        0.0944
     18 N         139.8429  142.0859  162.0210 N.3     1  UNL1       -0.2637
     19 C         139.8757  143.5345  162.4088 C.3     1  UNL1        0.0992
     20 C         141.2727  143.8667  162.8426 C.ar    1  UNL1       -0.0088
     21 C         141.8958  145.1407  163.3311 C.ar    1  UNL1       -0.0032
     22 C         143.3493  145.1713  163.6999 C.ar    1  UNL1       -0.0003
     23 C         144.1799  143.9280  163.5803 C.ar    1  UNL1       -0.0003
     24 C         143.5568  142.6540  163.0917 C.ar    1  UNL1       -0.0032
     25 C         142.1032  142.6234  162.7229 C.ar    1  UNL1       -0.0088
     26 C         141.2195  141.5228  162.2151 C.3     1  UNL1        0.0992
@<TRIPOS>BOND
     1    14    15    3
     2    15     7    1
     3     7     8   ar
     4     8     9   ar
     5     9     1    1
     6     1     2    1
     7     2     3    1
     8     3     4    1
     9     4    16    1
    10    16    17    1
    11    17    18    1
    12    18    19    1
    13    19    20    1
    14    20    21   ar
    15    21    22   ar
    16    22    23   ar
    17    23    24   ar
    18    24    25   ar
    19    25    26    1
    20     4     5   am
    21     5     6    2
    22     9    10   ar
    23    10    11   ar
    24    11    12   ar
    25    12    13    1
    26    12     7   ar
    27     5     1   am
    28    26    18    1
    29    25    20   ar
@<TRIPOS>MOLECULE
*****
 26 29 0 0 0
SMALL
GASTEIGER

@<TRIPOS>ATOM
      1 N         140.0939  142.6586  165.3639 N.am    1  UNL1       -0.2413
      2 C         139.9404  143.8435  164.4570 C.3     1  UNL1        0.1212
      3 C         138.8774  143.5211  163.4489 C.3     1  UNL1        0.1169
      4 N         138.3740  142.1368  163.7328 N.am    1  UNL1       -0.2606
      5 C         139.1258  141.6038  164.9163 C.2     1  UNL1        0.3111
      6 O         138.9419  140.2532  165.5423 O.2     1  UNL1       -0.2520
      7 C         141.4782  142.3743  169.0723 C.ar    1  UNL1        0.0970
      8 C         140.5241  142.4850  167.9202 C.ar    1  UNL1        0.0275
      9 C         141.0479  142.5480  166.5160 C.ar    1  UNL1        0.0562
     10 C         142.5258  142.5003  166.2640 C.ar    1  UNL1        0.0173
     11 C         143.4799  142.3897  167.4161 C.ar    1  UNL1        0.0316
     12 C         142.9561  142.3267  168.8203 C.ar    1  UNL1        0.1497
     13 F         143.9103  142.2161  169.9725 F       1  UNL1       -0.2035
     14 N         140.4306  142.2483  171.8807 N.1     1  UNL1       -0.1908
     15 C         140.9544  142.3113  170.4765 C.1     1  UNL1        0.1027
     16 C         137.3063  141.4127  162.9675 C.3     1  UNL1        0.1123
     17 C         137.6848  140.4167  161.9118 C.3     1  UNL1        0.0944
     18 N         139.1180  140.0054  161.7480 N.3     1  UNL1       -0.2637
     19 C         140.1506  140.7162  160.9243 C.3     1  UNL1        0.0992
     20 C         141.4410  139.9613  161.0463 C.ar    1  UNL1       -0.0088
     21 C         142.7997  140.1938  160.4549 C.ar    1  UNL1       -0.0032
     22 C         143.9233  139.2490  160.7627 C.ar    1  UNL1       -0.0003
     23 C         143.6883  138.0717  161.6619 C.ar    1  UNL1       -0.0003
     24 C         142.3296  137.8391  162.2533 C.ar    1  UNL1       -0.0032
     25 C         141.2060  138.7839  161.9456 C.ar    1  UNL1       -0.0088
     26 C         139.7703  138.8112  162.3792 C.3     1  UNL1        0.0992
@<TRIPOS>BOND
     1    14    15    3
     2    15     7    1
     3     7     8   ar
     4     8     9   ar
     5     9     1    1
     6     1     2    1
     7     2     3    1
     8     3     4    1
     9     4    16    1
    10    16    17    1
    11    17    18    1
    12    18    19    1
    13    19    20    1
    14    20    21   ar
    15    21    22   ar
    16    22    23   ar
    17    23    24   ar
    18    24    25   ar
    19    25    26    1
    20     4     5   am
    21     5     6    2
    22     9    10   ar
    23    10    11   ar
    24    11    12   ar
    25    12    13    1
    26    12     7   ar
    27     5     1   am
    28    26    18    1
    29    25    20   ar
