@<TRIPOS>MOLECULE
*****
 34 37 0 0 0
SMALL
GASTEIGER

@<TRIPOS>ATOM
      1 C         142.2315  140.1436  164.1592 C.2     1  UNL1        0.1397
      2 C         142.7031  140.4313  162.7647 C.2     1  UNL1        0.1355
      3 N         142.2287  141.6627  162.0515 N.pl3   1  UNL1       -0.1998
      4 C         141.2825  142.6063  162.7328 C.2     1  UNL1        0.3443
      5 N         140.8108  142.3186  164.1273 N.2     1  UNL1       -0.0580
      6 C         141.2853  141.0873  164.8405 C.3     1  UNL1        0.2692
      7 H         142.5383  141.8515  161.1362 H       1  UNL1        0.2983
      8 C         140.8136  140.7996  166.2351 C.ar    1  UNL1        0.0371
      9 C         139.5513  140.0194  166.4538 C.ar    1  UNL1        0.0030
     10 C         139.0796  139.7317  167.8483 C.ar    1  UNL1        0.0295
     11 C         139.8701  140.2242  169.0242 C.ar    1  UNL1        0.1406
     12 F         139.3984  139.9365  170.4187 F       1  UNL1       -0.2042
     13 C         141.1324  141.0044  168.8054 C.ar    1  UNL1        0.0362
     14 C         141.6042  141.2921  167.4108 C.ar    1  UNL1        0.0372
     15 BR        142.8665  142.0723  167.1920 Br      1  UNL1       -0.0491
     16 C         140.8080  143.8377  162.0196 C.ar    1  UNL1        0.1959
     17 N         140.2360  145.0650  162.6649 N.ar    1  UNL1       -0.2264
     18 C         139.8967  146.0438  161.5800 C.ar    1  UNL1        0.1434
     19 C         140.2590  145.4214  160.2643 C.ar    1  UNL1        0.1897
     20 S         140.8223  144.0579  160.5360 S.2     1  UNL1       -0.0226
     21 O         140.0882  146.0517  158.9139 O.3     1  UNL1       -0.4640
     22 C         140.2308  145.2193  157.6742 C.3     1  UNL1        0.2532
     23 C         142.7059  138.9123  164.8723 C.2     1  UNL1        0.3447
     24 O         144.0625  138.8918  165.5120 O.2     1  UNL1       -0.2450
     25 O         141.8238  137.7013  164.9459 O.3     1  UNL1       -0.4455
     26 C         139.6344  137.6046  163.5504 C.3     1  UNL1        0.0513
     27 C         141.0789  137.2410  163.7280 C.3     1  UNL1        0.2089
     28 C         143.6493  139.4876  162.0832 C.3     1  UNL1        0.1405
     29 N         143.4934  139.1955  160.6203 N.3     1  UNL1       -0.2617
     30 C         143.9351  140.2050  159.6026 C.3     1  UNL1        0.1050
     31 C         143.7791  139.9128  158.1396 C.3     1  UNL1        0.1595
     32 O         143.1815  138.6110  157.6943 O.3     1  UNL1       -0.3508
     33 C         142.7398  137.6015  158.7120 C.3     1  UNL1        0.1595
     34 C         142.8957  137.8937  160.1750 C.3     1  UNL1        0.1050
@<TRIPOS>BOND
     1    26    27    1
     2    27    25    1
     3    25    23    1
     4    23    24    2
     5    23     1    1
     6     1     2    2
     7     2    28    1
     8    28    29    1
     9    29    30    1
    10    30    31    1
    11    31    32    1
    12    32    33    1
    13    33    34    1
    14     2     3    1
    15     3     4    1
    16     4    16    1
    17    16    17   ar
    18    17    18   ar
    19    18    19   ar
    20    19    21    1
    21    21    22    1
    22    19    20   ar
    23     4     5    2
    24     5     6    1
    25     6     8    1
    26     8     9   ar
    27     9    10   ar
    28    10    11   ar
    29    11    12    1
    30    11    13   ar
    31    13    14   ar
    32    14    15    1
    33     6     1    1
    34    14     8   ar
    35    34    29    1
    36    20    16   ar
    37     3     7    1
@<TRIPOS>MOLECULE
*****
 34 37 0 0 0
SMALL
GASTEIGER

@<TRIPOS>ATOM
      1 C         140.7839  140.1940  164.3901 C.2     1  UNL1        0.1397
      2 C         140.4559  140.0767  162.9312 C.2     1  UNL1        0.1355
      3 N         140.2649  141.3130  162.1036 N.pl3   1  UNL1       -0.1998
      4 C         140.4019  142.6667  162.7350 C.2     1  UNL1        0.3443
      5 N         140.7300  142.7841  164.1939 N.2     1  UNL1       -0.0580
      6 C         140.9210  141.5477  165.0215 C.3     1  UNL1        0.2692
      7 H         140.0495  141.2360  161.1460 H       1  UNL1        0.2983
      8 C         141.2490  141.6650  166.4805 C.ar    1  UNL1        0.0371
      9 C         140.2009  141.3668  167.5112 C.ar    1  UNL1        0.0030
     10 C         140.5289  141.4842  168.9702 C.ar    1  UNL1        0.0295
     11 C         141.9051  141.8998  169.3985 C.ar    1  UNL1        0.1406
     12 F         142.2331  142.0171  170.8574 F       1  UNL1       -0.2042
     13 C         142.9533  142.1980  168.3677 C.ar    1  UNL1        0.0362
     14 C         142.6252  142.0806  166.9087 C.ar    1  UNL1        0.0372
     15 BR        143.6734  142.3788  165.8780 Br      1  UNL1       -0.0491
     16 C         140.2109  143.9031  161.9074 C.ar    1  UNL1        0.1959
     17 N         139.7644  145.2427  162.4136 N.ar    1  UNL1       -0.2264
     18 C         139.7104  146.1845  161.2474 C.ar    1  UNL1        0.1434
     19 C         140.1235  145.4270  160.0203 C.ar    1  UNL1        0.1897
     20 S         140.4328  144.0171  160.4283 S.2     1  UNL1       -0.0226
     21 O         140.2118  145.9820  158.6296 O.3     1  UNL1       -0.4640
     22 C         141.0976  145.3232  157.6140 C.3     1  UNL1        0.2532
     23 C         140.9749  138.9576  165.2177 C.2     1  UNL1        0.3447
     24 O         142.3560  138.5248  165.6118 O.2     1  UNL1       -0.2450
     25 O         139.7849  138.1540  165.6512 O.3     1  UNL1       -0.4455
     26 C         137.5955  138.5173  167.0021 C.3     1  UNL1        0.0513
     27 C         138.4480  138.8166  165.8046 C.3     1  UNL1        0.2089
     28 C         140.3188  138.7229  162.2997 C.3     1  UNL1        0.1405
     29 N         140.6834  138.5275  160.8579 N.3     1  UNL1       -0.2617
     30 C         139.6203  138.5832  159.8012 C.3     1  UNL1        0.1050
     31 C         139.9850  138.3877  158.3594 C.3     1  UNL1        0.1595
     32 O         141.4127  138.1365  157.9743 O.3     1  UNL1       -0.3508
     33 C         142.4759  138.0808  159.0310 C.3     1  UNL1        0.1595
     34 C         142.1112  138.2762  160.4728 C.3     1  UNL1        0.1050
@<TRIPOS>BOND
     1    26    27    1
     2    27    25    1
     3    25    23    1
     4    23    24    2
     5    23     1    1
     6     1     2    2
     7     2    28    1
     8    28    29    1
     9    29    30    1
    10    30    31    1
    11    31    32    1
    12    32    33    1
    13    33    34    1
    14     2     3    1
    15     3     4    1
    16     4    16    1
    17    16    17   ar
    18    17    18   ar
    19    18    19   ar
    20    19    21    1
    21    21    22    1
    22    19    20   ar
    23     4     5    2
    24     5     6    1
    25     6     8    1
    26     8     9   ar
    27     9    10   ar
    28    10    11   ar
    29    11    12    1
    30    11    13   ar
    31    13    14   ar
    32    14    15    1
    33     6     1    1
    34    14     8   ar
    35    34    29    1
    36    20    16   ar
    37     3     7    1
@<TRIPOS>MOLECULE
*****
 34 37 0 0 0
SMALL
GASTEIGER

@<TRIPOS>ATOM
      1 C         142.2932  143.2055  160.3489 C.2     1  UNL1        0.1397
      2 C         143.2252  143.1604  159.1744 C.2     1  UNL1        0.1355
      3 N         142.8839  143.9039  157.9172 N.pl3   1  UNL1       -0.1998
      4 C         141.6106  144.6925  157.8344 C.2     1  UNL1        0.3443
      5 N         140.6787  144.7376  159.0088 N.2     1  UNL1       -0.0580
      6 C         141.0200  143.9941  160.2661 C.3     1  UNL1        0.2692
      7 H         143.4956  143.8743  157.1463 H       1  UNL1        0.2983
      8 C         140.0880  144.0392  161.4406 C.ar    1  UNL1        0.0371
      9 C         140.3437  144.9991  162.5645 C.ar    1  UNL1        0.0030
     10 C         139.4118  145.0443  163.7390 C.ar    1  UNL1        0.0295
     11 C         138.2240  144.1294  163.7896 C.ar    1  UNL1        0.1406
     12 F         137.2921  144.1746  164.9640 F       1  UNL1       -0.2042
     13 C         137.9683  143.1695  162.6656 C.ar    1  UNL1        0.0362
     14 C         138.9003  143.1244  161.4911 C.ar    1  UNL1        0.0372
     15 BR        138.6446  142.1645  160.3672 Br      1  UNL1       -0.0491
     16 C         141.2693  145.4360  156.5771 C.ar    1  UNL1        0.1959
     17 N         141.9615  145.2951  155.2539 N.ar    1  UNL1       -0.2264
     18 C         141.2959  146.2230  154.2813 C.ar    1  UNL1        0.1434
     19 C         140.1923  146.9375  155.0034 C.ar    1  UNL1        0.1897
     20 S         140.1759  146.4511  156.4223 S.2     1  UNL1       -0.0226
     21 O         139.2674  147.9589  154.4108 O.3     1  UNL1       -0.4640
     22 C         139.6530  149.4085  154.4093 C.3     1  UNL1        0.2532
     23 C         142.6346  142.4620  161.6061 C.2     1  UNL1        0.3447
     24 O         141.8573  141.2371  161.9876 O.2     1  UNL1       -0.2450
     25 O         143.7531  142.9433  162.4819 O.3     1  UNL1       -0.4455
     26 C         143.6498  145.0622  163.9818 C.3     1  UNL1        0.0513
     27 C         143.9790  144.4142  162.6696 C.3     1  UNL1        0.2089
     28 C         144.4985  142.3718  159.2572 C.3     1  UNL1        0.1405
     29 N         145.2155  141.9712  158.0021 N.3     1  UNL1       -0.2617
     30 C         146.4366  142.7237  157.5631 C.3     1  UNL1        0.1050
     31 C         147.1536  142.3230  156.3079 C.3     1  UNL1        0.1595
     32 O         146.6495  141.1699  155.4917 O.3     1  UNL1       -0.3508
     33 C         145.4284  140.4174  155.9307 C.3     1  UNL1        0.1595
     34 C         144.7114  140.8180  157.1858 C.3     1  UNL1        0.1050
@<TRIPOS>BOND
     1    26    27    1
     2    27    25    1
     3    25    23    1
     4    23    24    2
     5    23     1    1
     6     1     2    2
     7     2    28    1
     8    28    29    1
     9    29    30    1
    10    30    31    1
    11    31    32    1
    12    32    33    1
    13    33    34    1
    14     2     3    1
    15     3     4    1
    16     4    16    1
    17    16    17   ar
    18    17    18   ar
    19    18    19   ar
    20    19    21    1
    21    21    22    1
    22    19    20   ar
    23     4     5    2
    24     5     6    1
    25     6     8    1
    26     8     9   ar
    27     9    10   ar
    28    10    11   ar
    29    11    12    1
    30    11    13   ar
    31    13    14   ar
    32    14    15    1
    33     6     1    1
    34    14     8   ar
    35    34    29    1
    36    20    16   ar
    37     3     7    1
@<TRIPOS>MOLECULE
*****
 34 37 0 0 0
SMALL
GASTEIGER

@<TRIPOS>ATOM
      1 C         142.2789  140.5476  161.1578 C.2     1  UNL1        0.1397
      2 C         143.0390  141.1329  160.0046 C.2     1  UNL1        0.1355
      3 N         143.3101  140.3016  158.7858 N.pl3   1  UNL1       -0.1998
      4 C         142.8212  138.8851  158.7201 C.2     1  UNL1        0.3443
      5 N         142.0612  138.2998  159.8733 N.2     1  UNL1       -0.0580
      6 C         141.7901  139.1310  161.0921 C.3     1  UNL1        0.2692
      7 H         143.8089  140.6858  158.0290 H       1  UNL1        0.2983
      8 C         141.0300  138.5457  162.2453 C.ar    1  UNL1        0.0371
      9 C         141.7678  137.8835  163.3710 C.ar    1  UNL1        0.0030
     10 C         141.0078  137.2981  164.5241 C.ar    1  UNL1        0.0295
     11 C         139.5100  137.3750  164.5516 C.ar    1  UNL1        0.1406
     12 F         138.7500  136.7896  165.7047 F       1  UNL1       -0.2042
     13 C         138.7722  138.0372  163.4259 C.ar    1  UNL1        0.0362
     14 C         139.5322  138.6225  162.2727 C.ar    1  UNL1        0.0372
     15 BR        138.7945  139.2847  161.1470 Br      1  UNL1       -0.0491
     16 C         143.0923  138.0538  157.5013 C.ar    1  UNL1        0.1959
     17 N         143.9207  138.4647  156.3203 N.ar    1  UNL1       -0.2264
     18 C         143.9230  137.3306  155.3386 C.ar    1  UNL1        0.1434
     19 C         143.0960  136.2187  155.9129 C.ar    1  UNL1        0.1897
     20 S         142.5826  136.6657  157.2495 S.2     1  UNL1       -0.0226
     21 O         142.8293  134.8927  155.2645 O.3     1  UNL1       -0.4640
     22 C         141.4219  134.3893  155.1378 C.3     1  UNL1        0.2532
     23 C         142.0078  141.3788  162.3766 C.2     1  UNL1        0.3447
     24 O         140.7163  142.1318  162.4988 O.2     1  UNL1       -0.2450
     25 O         143.0282  141.4571  163.4732 O.3     1  UNL1       -0.4455
     26 C         144.8397  139.7718  164.2660 C.3     1  UNL1        0.0513
     27 C         144.3719  140.8148  163.2947 C.3     1  UNL1        0.2089
     28 C         143.5279  142.5495  160.0703 C.3     1  UNL1        0.1405
     29 N         142.7374  143.6466  159.4212 N.3     1  UNL1       -0.2617
     30 C         141.7327  144.4215  160.2213 C.3     1  UNL1        0.1050
     31 C         140.9421  145.5186  159.5721 C.3     1  UNL1        0.1595
     32 O         141.1563  145.8408  158.1229 O.3     1  UNL1       -0.3508
     33 C         142.1609  145.0659  157.3228 C.3     1  UNL1        0.1595
     34 C         142.9514  143.9688  157.9719 C.3     1  UNL1        0.1050
@<TRIPOS>BOND
     1    26    27    1
     2    27    25    1
     3    25    23    1
     4    23    24    2
     5    23     1    1
     6     1     2    2
     7     2    28    1
     8    28    29    1
     9    29    30    1
    10    30    31    1
    11    31    32    1
    12    32    33    1
    13    33    34    1
    14     2     3    1
    15     3     4    1
    16     4    16    1
    17    16    17   ar
    18    17    18   ar
    19    18    19   ar
    20    19    21    1
    21    21    22    1
    22    19    20   ar
    23     4     5    2
    24     5     6    1
    25     6     8    1
    26     8     9   ar
    27     9    10   ar
    28    10    11   ar
    29    11    12    1
    30    11    13   ar
    31    13    14   ar
    32    14    15    1
    33     6     1    1
    34    14     8   ar
    35    34    29    1
    36    20    16   ar
    37     3     7    1
@<TRIPOS>MOLECULE
*****
 34 37 0 0 0
SMALL
GASTEIGER

@<TRIPOS>ATOM
      1 C         139.8598  141.0959  160.8846 C.2     1  UNL1        0.1397
      2 C         140.0052  140.3079  159.6166 C.2     1  UNL1        0.1355
      3 N         139.2684  140.7326  158.3810 N.pl3   1  UNL1       -0.1998
      4 C         138.3863  141.9453  158.4133 C.2     1  UNL1        0.3443
      5 N         138.2409  142.7333  159.6813 N.2     1  UNL1       -0.0580
      6 C         138.9777  142.3086  160.9170 C.3     1  UNL1        0.2692
      7 H         139.3639  140.2154  157.5487 H       1  UNL1        0.2983
      8 C         138.8322  143.0967  162.1850 C.ar    1  UNL1        0.0371
      9 C         137.7689  142.7306  163.1777 C.ar    1  UNL1        0.0030
     10 C         137.6235  143.5186  164.4457 C.ar    1  UNL1        0.0295
     11 C         138.5413  144.6727  164.7211 C.ar    1  UNL1        0.1406
     12 F         138.3958  145.4607  165.9891 F       1  UNL1       -0.2042
     13 C         139.6046  145.0387  163.7283 C.ar    1  UNL1        0.0362
     14 C         139.7500  144.2507  162.4603 C.ar    1  UNL1        0.0372
     15 BR        140.8133  144.6167  161.4676 Br      1  UNL1       -0.0491
     16 C         137.6495  142.3700  157.1777 C.ar    1  UNL1        0.1959
     17 N         137.7953  143.6860  156.4728 N.ar    1  UNL1       -0.2264
     18 C         136.8735  143.6827  155.2894 C.ar    1  UNL1        0.1434
     19 C         136.1580  142.3646  155.2630 C.ar    1  UNL1        0.1897
     20 S         136.6376  141.5533  156.4300 S.2     1  UNL1       -0.0226
     21 O         135.1414  141.9334  154.2478 O.3     1  UNL1       -0.4640
     22 C         134.8911  140.4736  154.0102 C.3     1  UNL1        0.2532
     23 C         140.5966  140.6712  162.1202 C.2     1  UNL1        0.3447
     24 O         141.9258  141.2836  162.4486 O.2     1  UNL1       -0.2450
     25 O         140.0041  139.6340  163.0275 O.3     1  UNL1       -0.4455
     26 C         138.2397  137.9795  162.0787 C.3     1  UNL1        0.0513
     27 C         138.5731  139.2178  162.8571 C.3     1  UNL1        0.2089
     28 C         140.8874  139.0951  159.5842 C.3     1  UNL1        0.1405
     29 N         141.9266  138.9521  158.5121 N.3     1  UNL1       -0.2617
     30 C         142.8462  140.0958  158.2015 C.3     1  UNL1        0.1050
     31 C         143.8855  139.9527  157.1293 C.3     1  UNL1        0.1595
     32 O         144.0052  138.6660  156.3678 O.3     1  UNL1       -0.3508
     33 C         143.0856  137.5223  156.6783 C.3     1  UNL1        0.1595
     34 C         142.0464  137.6653  157.7504 C.3     1  UNL1        0.1050
@<TRIPOS>BOND
     1    26    27    1
     2    27    25    1
     3    25    23    1
     4    23    24    2
     5    23     1    1
     6     1     2    2
     7     2    28    1
     8    28    29    1
     9    29    30    1
    10    30    31    1
    11    31    32    1
    12    32    33    1
    13    33    34    1
    14     2     3    1
    15     3     4    1
    16     4    16    1
    17    16    17   ar
    18    17    18   ar
    19    18    19   ar
    20    19    21    1
    21    21    22    1
    22    19    20   ar
    23     4     5    2
    24     5     6    1
    25     6     8    1
    26     8     9   ar
    27     9    10   ar
    28    10    11   ar
    29    11    12    1
    30    11    13   ar
    31    13    14   ar
    32    14    15    1
    33     6     1    1
    34    14     8   ar
    35    34    29    1
    36    20    16   ar
    37     3     7    1
@<TRIPOS>MOLECULE
*****
 34 37 0 0 0
SMALL
GASTEIGER

@<TRIPOS>ATOM
      1 C         142.8220  143.1872  160.0914 C.2     1  UNL1        0.1397
      2 C         142.5014  143.9610  158.8471 C.2     1  UNL1        0.1355
      3 N         143.2931  143.7285  157.5944 N.pl3   1  UNL1       -0.1998
      4 C         144.4053  142.7221  157.5861 C.2     1  UNL1        0.3443
      5 N         144.7259  141.9483  158.8304 N.2     1  UNL1       -0.0580
      6 C         143.9342  142.1808  160.0831 C.3     1  UNL1        0.2692
      7 H         143.0827  144.2364  156.7777 H       1  UNL1        0.2983
      8 C         144.2548  141.4069  161.3274 C.ar    1  UNL1        0.0371
      9 C         145.1680  141.9951  162.3620 C.ar    1  UNL1        0.0030
     10 C         145.4886  141.2212  163.6063 C.ar    1  UNL1        0.0295
     11 C         144.8961  139.8592  163.8161 C.ar    1  UNL1        0.1406
     12 F         145.2167  139.0854  165.0604 F       1  UNL1       -0.2042
     13 C         143.9830  139.2711  162.7816 C.ar    1  UNL1        0.0362
     14 C         143.6623  140.0450  161.5372 C.ar    1  UNL1        0.0372
     15 BR        142.7492  139.4569  160.5026 Br      1  UNL1       -0.0491
     16 C         145.1970  142.4896  156.3334 C.ar    1  UNL1        0.1959
     17 N         144.6803  142.6040  154.9299 N.ar    1  UNL1       -0.2264
     18 C         145.8084  142.2869  153.9934 C.ar    1  UNL1        0.1434
     19 C         147.0222  141.9766  154.8181 C.ar    1  UNL1        0.1897
     20 S         146.6444  142.1019  156.2643 S.2     1  UNL1       -0.0226
     21 O         148.3762  141.6061  154.2895 O.3     1  UNL1       -0.4640
     22 C         149.5766  141.6771  155.1862 C.3     1  UNL1        0.2532
     23 C         142.0303  143.4197  161.3441 C.2     1  UNL1        0.3447
     24 O         140.9243  142.4779  161.7180 O.2     1  UNL1       -0.2450
     25 O         142.3446  144.5940  162.2228 O.3     1  UNL1       -0.4455
     26 C         140.1254  145.9446  162.1892 C.3     1  UNL1        0.0513
     27 C         141.2417  145.2990  162.9554 C.3     1  UNL1        0.2089
     28 C         141.3891  144.9674  158.8554 C.3     1  UNL1        0.1405
     29 N         140.3854  144.9851  157.7409 N.3     1  UNL1       -0.2617
     30 C         139.6520  143.7297  157.3721 C.3     1  UNL1        0.1050
     31 C         138.6482  143.7474  156.2576 C.3     1  UNL1        0.1595
     32 O         138.3778  145.0205  155.5119 O.3     1  UNL1       -0.3508
     33 C         139.1112  146.2760  155.8808 C.3     1  UNL1        0.1595
     34 C         140.1149  146.2583  156.9952 C.3     1  UNL1        0.1050
@<TRIPOS>BOND
     1    26    27    1
     2    27    25    1
     3    25    23    1
     4    23    24    2
     5    23     1    1
     6     1     2    2
     7     2    28    1
     8    28    29    1
     9    29    30    1
    10    30    31    1
    11    31    32    1
    12    32    33    1
    13    33    34    1
    14     2     3    1
    15     3     4    1
    16     4    16    1
    17    16    17   ar
    18    17    18   ar
    19    18    19   ar
    20    19    21    1
    21    21    22    1
    22    19    20   ar
    23     4     5    2
    24     5     6    1
    25     6     8    1
    26     8     9   ar
    27     9    10   ar
    28    10    11   ar
    29    11    12    1
    30    11    13   ar
    31    13    14   ar
    32    14    15    1
    33     6     1    1
    34    14     8   ar
    35    34    29    1
    36    20    16   ar
    37     3     7    1
@<TRIPOS>MOLECULE
*****
 34 37 0 0 0
SMALL
GASTEIGER

@<TRIPOS>ATOM
      1 C         139.4937  141.1049  161.1209 C.2     1  UNL1        0.1397
      2 C         139.6318  140.3823  159.8138 C.2     1  UNL1        0.1355
      3 N         139.3708  141.1054  158.5258 N.pl3   1  UNL1       -0.1998
      4 C         138.9716  142.5511  158.5449 C.2     1  UNL1        0.3443
      5 N         138.8335  143.2738  159.8520 N.2     1  UNL1       -0.0580
      6 C         139.0946  142.5507  161.1400 C.3     1  UNL1        0.2692
      7 H         139.4614  140.6310  157.6678 H       1  UNL1        0.2983
      8 C         138.9564  143.2735  162.4472 C.ar    1  UNL1        0.0371
      9 C         137.6607  143.2191  163.2010 C.ar    1  UNL1        0.0030
     10 C         137.5226  143.9418  164.5081 C.ar    1  UNL1        0.0295
     11 C         138.6801  144.7189  165.0615 C.ar    1  UNL1        0.1406
     12 F         138.5420  145.4416  166.3686 F       1  UNL1       -0.2042
     13 C         139.9758  144.7733  164.3077 C.ar    1  UNL1        0.0362
     14 C         140.1140  144.0505  163.0005 C.ar    1  UNL1        0.0372
     15 BR        141.4097  144.1049  162.2467 Br      1  UNL1       -0.0491
     16 C         138.7106  143.2742  157.2568 C.ar    1  UNL1        0.1959
     17 N         137.5024  143.1107  156.3831 N.ar    1  UNL1       -0.2264
     18 C         137.6570  144.0232  155.2027 C.ar    1  UNL1        0.1434
     19 C         138.9608  144.7507  155.3468 C.ar    1  UNL1        0.1897
     20 S         139.6120  144.2878  156.6164 S.2     1  UNL1       -0.0226
     21 O         139.5160  145.7633  154.3896 O.3     1  UNL1       -0.4640
     22 C         140.2670  146.9535  154.9088 C.3     1  UNL1        0.2532
     23 C         139.7547  140.3818  162.4089 C.2     1  UNL1        0.3447
     24 O         141.1135  140.4428  163.0412 O.2     1  UNL1       -0.2450
     25 O         138.6569  139.5978  163.0647 O.3     1  UNL1       -0.4455
     26 C         139.1179  137.6922  164.7695 C.3     1  UNL1        0.0513
     27 C         138.8511  138.1407  163.3631 C.3     1  UNL1        0.2089
     28 C         140.0309  138.9364  159.7946 C.3     1  UNL1        0.1405
     29 N         140.6823  138.3543  158.5753 N.3     1  UNL1       -0.2617
     30 C         142.1782  138.3028  158.4764 C.3     1  UNL1        0.1050
     31 C         142.8296  137.7206  157.2570 C.3     1  UNL1        0.1595
     32 O         141.9851  137.1900  156.1366 O.3     1  UNL1       -0.3508
     33 C         140.4893  137.2415  156.2356 C.3     1  UNL1        0.1595
     34 C         139.8379  137.8236  157.4549 C.3     1  UNL1        0.1050
@<TRIPOS>BOND
     1    26    27    1
     2    27    25    1
     3    25    23    1
     4    23    24    2
     5    23     1    1
     6     1     2    2
     7     2    28    1
     8    28    29    1
     9    29    30    1
    10    30    31    1
    11    31    32    1
    12    32    33    1
    13    33    34    1
    14     2     3    1
    15     3     4    1
    16     4    16    1
    17    16    17   ar
    18    17    18   ar
    19    18    19   ar
    20    19    21    1
    21    21    22    1
    22    19    20   ar
    23     4     5    2
    24     5     6    1
    25     6     8    1
    26     8     9   ar
    27     9    10   ar
    28    10    11   ar
    29    11    12    1
    30    11    13   ar
    31    13    14   ar
    32    14    15    1
    33     6     1    1
    34    14     8   ar
    35    34    29    1
    36    20    16   ar
    37     3     7    1
@<TRIPOS>MOLECULE
*****
 34 37 0 0 0
SMALL
GASTEIGER

@<TRIPOS>ATOM
      1 C         141.2360  142.0700  162.0381 C.2     1  UNL1        0.1397
      2 C         141.8042  142.4114  160.6926 C.2     1  UNL1        0.1355
      3 N         141.9033  141.3566  159.6307 N.pl3   1  UNL1       -0.1998
      4 C         141.4342  139.9604  159.9144 C.2     1  UNL1        0.3443
      5 N         140.8659  139.6190  161.2599 N.2     1  UNL1       -0.0580
      6 C         140.7668  140.6738  162.3218 C.3     1  UNL1        0.2692
      7 H         142.2763  141.5807  158.7476 H       1  UNL1        0.2983
      8 C         140.1985  140.3323  163.6674 C.ar    1  UNL1        0.0371
      9 C         141.1030  139.8533  164.7639 C.ar    1  UNL1        0.0030
     10 C         140.5348  139.5119  166.1094 C.ar    1  UNL1        0.0295
     11 C         139.0620  139.6494  166.3585 C.ar    1  UNL1        0.1406
     12 F         138.4938  139.3079  167.7040 F       1  UNL1       -0.2042
     13 C         138.1575  140.1284  165.2619 C.ar    1  UNL1        0.0362
     14 C         138.7258  140.4699  163.9163 C.ar    1  UNL1        0.0372
     15 BR        137.8212  140.9489  162.8198 Br      1  UNL1       -0.0491
     16 C         141.5333  138.9056  158.8525 C.ar    1  UNL1        0.1959
     17 N         140.4867  138.5864  157.8264 N.ar    1  UNL1       -0.2264
     18 C         141.0029  137.4683  156.9700 C.ar    1  UNL1        0.1434
     19 C         142.3686  137.0965  157.4668 C.ar    1  UNL1        0.1897
     20 S         142.6963  137.9848  158.6302 S.2     1  UNL1       -0.0226
     21 O         143.2515  136.0247  156.8997 O.3     1  UNL1       -0.4640
     22 C         144.0455  136.2878  155.6545 C.3     1  UNL1        0.2532
     23 C         141.1369  143.1247  163.1000 C.2     1  UNL1        0.3447
     24 O         142.2245  143.2630  164.1237 O.2     1  UNL1       -0.2450
     25 O         139.9501  144.0413  163.1383 O.3     1  UNL1       -0.4455
     26 C         137.9832  144.2532  164.8225 C.3     1  UNL1        0.0513
     27 C         139.4132  144.5186  164.4550 C.3     1  UNL1        0.2089
     28 C         142.2734  143.8076  160.4089 C.3     1  UNL1        0.1405
     29 N         141.8217  144.5122  159.1642 N.3     1  UNL1       -0.2617
     30 C         140.5913  145.3697  159.1923 C.3     1  UNL1        0.1050
     31 C         140.1396  146.0744  157.9475 C.3     1  UNL1        0.1595
     32 O         140.9183  145.9215  156.6746 O.3     1  UNL1       -0.3508
     33 C         142.1487  145.0641  156.6465 C.3     1  UNL1        0.1595
     34 C         142.6004  144.3595  157.8912 C.3     1  UNL1        0.1050
@<TRIPOS>BOND
     1    26    27    1
     2    27    25    1
     3    25    23    1
     4    23    24    2
     5    23     1    1
     6     1     2    2
     7     2    28    1
     8    28    29    1
     9    29    30    1
    10    30    31    1
    11    31    32    1
    12    32    33    1
    13    33    34    1
    14     2     3    1
    15     3     4    1
    16     4    16    1
    17    16    17   ar
    18    17    18   ar
    19    18    19   ar
    20    19    21    1
    21    21    22    1
    22    19    20   ar
    23     4     5    2
    24     5     6    1
    25     6     8    1
    26     8     9   ar
    27     9    10   ar
    28    10    11   ar
    29    11    12    1
    30    11    13   ar
    31    13    14   ar
    32    14    15    1
    33     6     1    1
    34    14     8   ar
    35    34    29    1
    36    20    16   ar
    37     3     7    1
@<TRIPOS>MOLECULE
*****
 34 37 0 0 0
SMALL
GASTEIGER

@<TRIPOS>ATOM
      1 C         141.8261  139.9223  161.2102 C.2     1  UNL1        0.1397
      2 C         142.2817  139.9870  159.7825 C.2     1  UNL1        0.1355
      3 N         142.1781  141.2745  159.0198 N.pl3   1  UNL1       -0.1998
      4 C         141.6191  142.4973  159.6848 C.2     1  UNL1        0.3443
      5 N         141.1635  142.4326  161.1125 N.2     1  UNL1       -0.0580
      6 C         141.2670  141.1451  161.8752 C.3     1  UNL1        0.2692
      7 H         142.4771  141.3170  158.0828 H       1  UNL1        0.2983
      8 C         140.8115  141.0805  163.3029 C.ar    1  UNL1        0.0371
      9 C         141.8169  141.1401  164.4144 C.ar    1  UNL1        0.0030
     10 C         141.3614  141.0755  165.8421 C.ar    1  UNL1        0.0295
     11 C         139.9004  140.9512  166.1583 C.ar    1  UNL1        0.1406
     12 F         139.4449  140.8865  167.5860 F       1  UNL1       -0.2042
     13 C         138.8949  140.8915  165.0468 C.ar    1  UNL1        0.0362
     14 C         139.3505  140.9562  163.6190 C.ar    1  UNL1        0.0372
     15 BR        138.3450  140.8965  162.5075 Br      1  UNL1       -0.0491
     16 C         141.5155  143.7848  158.9221 C.ar    1  UNL1        0.1959
     17 N         142.6615  144.5648  158.3492 N.ar    1  UNL1       -0.2264
     18 C         142.1021  145.7804  157.6714 C.ar    1  UNL1        0.1434
     19 C         140.6103  145.7516  157.8254 C.ar    1  UNL1        0.1897
     20 S         140.2478  144.5183  158.5984 S.2     1  UNL1       -0.0226
     21 O         139.6497  146.7763  157.2989 O.3     1  UNL1       -0.4640
     22 C         139.5245  146.9972  155.8205 C.3     1  UNL1        0.2532
     23 C         141.9296  138.6349  161.9729 C.2     1  UNL1        0.3447
     24 O         143.1419  138.3549  162.8107 O.2     1  UNL1       -0.2450
     25 O         140.8209  137.6274  161.8978 O.3     1  UNL1       -0.4455
     26 C         140.3185  137.4742  164.4423 C.3     1  UNL1        0.0513
     27 C         139.8353  137.5116  163.0226 C.3     1  UNL1        0.2089
     28 C         142.8408  138.7642  159.1175 C.3     1  UNL1        0.1405
     29 N         142.0343  138.0390  158.0814 N.3     1  UNL1       -0.2617
     30 C         140.5642  138.3071  157.9522 C.3     1  UNL1        0.1050
     31 C         139.7577  137.5817  156.9160 C.3     1  UNL1        0.1595
     32 O         140.4215  136.5884  156.0090 O.3     1  UNL1       -0.3508
     33 C         141.8916  136.3203  156.1382 C.3     1  UNL1        0.1595
     34 C         142.6981  137.0456  157.1743 C.3     1  UNL1        0.1050
@<TRIPOS>BOND
     1    26    27    1
     2    27    25    1
     3    25    23    1
     4    23    24    2
     5    23     1    1
     6     1     2    2
     7     2    28    1
     8    28    29    1
     9    29    30    1
    10    30    31    1
    11    31    32    1
    12    32    33    1
    13    33    34    1
    14     2     3    1
    15     3     4    1
    16     4    16    1
    17    16    17   ar
    18    17    18   ar
    19    18    19   ar
    20    19    21    1
    21    21    22    1
    22    19    20   ar
    23     4     5    2
    24     5     6    1
    25     6     8    1
    26     8     9   ar
    27     9    10   ar
    28    10    11   ar
    29    11    12    1
    30    11    13   ar
    31    13    14   ar
    32    14    15    1
    33     6     1    1
    34    14     8   ar
    35    34    29    1
    36    20    16   ar
    37     3     7    1
