@<TRIPOS>MOLECULE
*****
 39 43 0 0 0
SMALL
GASTEIGER

@<TRIPOS>ATOM
      1 C         138.0203  141.2331  156.1166 C.ar    1  UNL1       -0.0130
      2 C         139.0423  140.3536  156.7738 C.ar    1  UNL1       -0.0023
      3 C         139.9812  140.9274  157.7932 C.ar    1  UNL1        0.0173
      4 C         139.8982  142.3807  158.1553 C.ar    1  UNL1        0.0654
      5 C         138.8762  143.2601  157.4980 C.ar    1  UNL1        0.0173
      6 C         137.9373  142.6863  156.4787 C.ar    1  UNL1       -0.0023
      7 N         140.8372  142.9545  159.1747 N.ar    1  UNL1       -0.2879
      8 C         141.9778  143.8879  158.8960 C.ar    1  UNL1        0.1828
      9 N         142.6460  144.2058  160.2008 N.ar    1  UNL1       -0.2236
     10 C         141.9183  143.4689  161.2859 C.ar    1  UNL1        0.0991
     11 C         142.1292  143.4022  162.7694 C.ar    1  UNL1        0.0206
     12 C         141.2222  142.5620  163.6188 C.ar    1  UNL1        0.0016
     13 C         140.1043  141.7886  162.9846 C.ar    1  UNL1        0.0016
     14 C         139.8934  141.8554  161.5011 C.ar    1  UNL1        0.0191
     15 C         140.8004  142.6955  160.6517 C.ar    1  UNL1        0.0830
     16 C         141.4331  142.4953  165.1025 C.ar    1  UNL1        0.0001
     17 C         142.7776  142.1221  165.6529 C.ar    1  UNL1        0.0013
     18 C         142.9885  142.0553  167.1364 C.ar    1  UNL1        0.0183
     19 C         141.8548  142.3618  168.0697 C.ar    1  UNL1        0.1057
     20 C         140.5103  142.7350  167.5193 C.ar    1  UNL1        0.0183
     21 C         140.2994  142.8017  166.0357 C.ar    1  UNL1        0.0013
     22 S         142.0657  142.2950  169.5533 S.O2    1  UNL1        0.0104
     23 C         142.2766  142.2282  171.0368 C.3     1  UNL1        0.1816
     24 O         140.6629  141.7944  169.7302 O.2     1  UNL1       -0.1686
     25 O         143.4686  142.7955  169.3764 O.2     1  UNL1       -0.1686
     26 C         137.0813  140.6593  155.0972 C.3     1  UNL1        0.1117
     27 N         134.9306  140.6383  156.5546 N.am    1  UNL1       -0.2664
     28 C         135.8178  139.9820  155.5387 C.2     1  UNL1        0.2317
     29 O         135.4416  138.6484  154.9642 O.2     1  UNL1       -0.2744
     30 H         135.1775  141.5136  156.9317 H       1  UNL1        0.1564
     31 C         131.3218  139.3926  157.2547 C.ar    1  UNL1        0.1549
     32 C         132.2755  140.3297  156.5749 C.ar    1  UNL1        0.0733
     33 C         133.6671  139.9609  156.9961 C.ar    1  UNL1        0.1760
     34 N         133.5735  138.7959  157.9362 N.ar    1  UNL1       -0.0621
     35 O         132.1240  138.4446  158.0960 O.2     1  UNL1       -0.3565
     36 C         129.9342  140.4334  156.0335 C.3     1  UNL1        0.0076
     37 C         129.8281  139.4019  157.1174 C.3     1  UNL1        0.0539
     38 C         129.7220  138.3704  158.2012 C.3     1  UNL1        0.0076
     39 C         128.3344  139.4111  156.9800 C.3     1  UNL1        0.0076
@<TRIPOS>BOND
     1    36    37    1
     2    37    38    1
     3    37    39    1
     4    37    31    1
     5    31    32   ar
     6    32    33   ar
     7    33    27    1
     8    27    28   am
     9    28    29    2
    10    28    26    1
    11    26     1    1
    12     1     2   ar
    13     2     3   ar
    14     3     4   ar
    15     4     7    1
    16     7     8   ar
    17     8     9   ar
    18     9    10   ar
    19    10    11   ar
    20    11    12   ar
    21    12    16    1
    22    16    17   ar
    23    17    18   ar
    24    18    19   ar
    25    19    22    1
    26    22    23    1
    27    22    24    2
    28    22    25    2
    29    19    20   ar
    30    20    21   ar
    31    12    13   ar
    32    13    14   ar
    33    14    15   ar
    34     4     5   ar
    35     5     6   ar
    36    33    34   ar
    37    34    35   ar
    38    35    31   ar
    39     6     1   ar
    40    15     7   ar
    41    15    10   ar
    42    21    16   ar
    43    27    30    1
@<TRIPOS>MOLECULE
*****
 39 43 0 0 0
SMALL
GASTEIGER

@<TRIPOS>ATOM
      1 C         137.6719  140.7538  155.9411 C.ar    1  UNL1       -0.0130
      2 C         137.2705  142.0953  156.4788 C.ar    1  UNL1       -0.0023
      3 C         138.1589  142.8088  157.4544 C.ar    1  UNL1        0.0173
      4 C         139.4489  142.1807  157.8922 C.ar    1  UNL1        0.0654
      5 C         139.8503  140.8392  157.3544 C.ar    1  UNL1        0.0173
      6 C         138.9618  140.1258  156.3789 C.ar    1  UNL1       -0.0023
      7 N         140.3374  142.8941  158.8677 N.ar    1  UNL1       -0.2879
      8 C         141.2919  144.0044  158.5421 C.ar    1  UNL1        0.1828
      9 N         141.9717  144.4190  159.8133 N.ar    1  UNL1       -0.2236
     10 C         141.4373  143.5648  160.9246 C.ar    1  UNL1        0.0991
     11 C         141.7400  143.5235  162.3931 C.ar    1  UNL1        0.0206
     12 C         141.0326  142.5397  163.2772 C.ar    1  UNL1        0.0016
     13 C         140.0225  141.5973  162.6928 C.ar    1  UNL1        0.0016
     14 C         139.7198  141.6386  161.2243 C.ar    1  UNL1        0.0191
     15 C         140.4272  142.6224  160.3402 C.ar    1  UNL1        0.0830
     16 C         141.3353  142.4983  164.7459 C.ar    1  UNL1        0.0001
     17 C         140.2170  142.5550  165.7439 C.ar    1  UNL1        0.0013
     18 C         140.5196  142.5136  167.2125 C.ar    1  UNL1        0.0183
     19 C         141.9405  142.4156  167.6830 C.ar    1  UNL1        0.1057
     20 C         143.0588  142.3589  166.6849 C.ar    1  UNL1        0.0183
     21 C         142.7562  142.4003  165.2163 C.ar    1  UNL1        0.0013
     22 S         142.2432  142.3742  169.1516 S.O2    1  UNL1        0.0104
     23 C         142.5458  142.3328  170.6201 C.3     1  UNL1        0.1816
     24 O         140.8023  142.0729  169.4400 O.2     1  UNL1       -0.1686
     25 O         143.6840  142.6755  168.8632 O.2     1  UNL1       -0.1686
     26 C         136.7835  140.0404  154.9655 C.3     1  UNL1        0.1117
     27 N         134.6731  139.5160  156.3873 N.am    1  UNL1       -0.2664
     28 C         135.2944  140.0764  155.1422 C.2     1  UNL1        0.2317
     29 O         134.4266  140.6726  154.0738 O.2     1  UNL1       -0.2744
     30 H         135.2427  139.1247  157.0884 H       1  UNL1        0.1564
     31 C         130.8854  138.8630  156.9279 C.ar    1  UNL1        0.1549
     32 C         132.2973  138.3689  156.8169 C.ar    1  UNL1        0.0733
     33 C         133.1840  139.5520  156.5639 C.ar    1  UNL1        0.1760
     34 N         132.3201  140.7774  156.5187 N.ar    1  UNL1       -0.0621
     35 O         130.8995  140.3516  156.7436 O.2     1  UNL1       -0.3565
     36 C         129.4311  137.9243  155.7016 C.3     1  UNL1        0.0076
     37 C         129.6724  138.0171  157.1792 C.3     1  UNL1        0.0539
     38 C         129.9137  138.1100  158.6567 C.3     1  UNL1        0.0076
     39 C         128.4594  137.1713  157.4304 C.3     1  UNL1        0.0076
@<TRIPOS>BOND
     1    36    37    1
     2    37    38    1
     3    37    39    1
     4    37    31    1
     5    31    32   ar
     6    32    33   ar
     7    33    27    1
     8    27    28   am
     9    28    29    2
    10    28    26    1
    11    26     1    1
    12     1     2   ar
    13     2     3   ar
    14     3     4   ar
    15     4     7    1
    16     7     8   ar
    17     8     9   ar
    18     9    10   ar
    19    10    11   ar
    20    11    12   ar
    21    12    16    1
    22    16    17   ar
    23    17    18   ar
    24    18    19   ar
    25    19    22    1
    26    22    23    1
    27    22    24    2
    28    22    25    2
    29    19    20   ar
    30    20    21   ar
    31    12    13   ar
    32    13    14   ar
    33    14    15   ar
    34     4     5   ar
    35     5     6   ar
    36    33    34   ar
    37    34    35   ar
    38    35    31   ar
    39     6     1   ar
    40    15     7   ar
    41    15    10   ar
    42    21    16   ar
    43    27    30    1
@<TRIPOS>MOLECULE
*****
 39 43 0 0 0
SMALL
GASTEIGER

@<TRIPOS>ATOM
      1 C         142.2008  136.8998  156.1854 C.ar    1  UNL1       -0.0130
      2 C         140.7011  136.9085  156.1556 C.ar    1  UNL1       -0.0023
      3 C         139.9337  137.6169  157.2322 C.ar    1  UNL1        0.0173
      4 C         140.6660  138.3167  158.3387 C.ar    1  UNL1        0.0654
      5 C         142.1656  138.3079  158.3685 C.ar    1  UNL1        0.0173
      6 C         142.9330  137.5994  157.2918 C.ar    1  UNL1       -0.0023
      7 N         139.8985  139.0251  159.4154 N.ar    1  UNL1       -0.2879
      8 C         138.6460  139.8277  159.2228 C.ar    1  UNL1        0.1828
      9 N         138.2223  140.3539  160.5620 N.ar    1  UNL1       -0.2236
     10 C         139.2129  139.8765  161.5823 C.ar    1  UNL1        0.0991
     11 C         139.3054  140.0836  163.0650 C.ar    1  UNL1        0.0206
     12 C         140.4339  139.4693  163.8390 C.ar    1  UNL1        0.0016
     13 C         141.4699  138.6481  163.1303 C.ar    1  UNL1        0.0016
     14 C         141.3774  138.4410  161.6476 C.ar    1  UNL1        0.0191
     15 C         140.2489  139.0553  160.8736 C.ar    1  UNL1        0.0830
     16 C         140.5265  139.6763  165.3218 C.ar    1  UNL1        0.0001
     17 C         139.2763  139.8123  166.1396 C.ar    1  UNL1        0.0013
     18 C         139.3688  140.0193  167.6223 C.ar    1  UNL1        0.0183
     19 C         140.7115  140.0904  168.2874 C.ar    1  UNL1        0.1057
     20 C         141.9616  139.9544  167.4696 C.ar    1  UNL1        0.0183
     21 C         141.8691  139.7474  165.9868 C.ar    1  UNL1        0.0013
     22 S         140.8040  140.2974  169.7701 S.O2    1  UNL1        0.0104
     23 C         140.8965  140.5044  171.2529 C.3     1  UNL1        0.1816
     24 O         139.4103  139.7668  169.9311 O.2     1  UNL1       -0.1686
     25 O         142.1978  140.8279  169.6091 O.2     1  UNL1       -0.1686
     26 C         142.9683  136.1913  155.1087 C.3     1  UNL1        0.1117
     27 N         143.8258  134.0976  156.3858 N.am    1  UNL1       -0.2664
     28 C         143.1679  134.7065  155.1831 C.2     1  UNL1        0.2317
     29 O         142.7097  133.8307  154.0549 O.2     1  UNL1       -0.2744
     30 H         144.1266  134.6725  157.1263 H       1  UNL1        0.1564
     31 C         143.6170  130.2421  156.7814 C.ar    1  UNL1        0.1549
     32 C         142.9847  131.6011  156.8384 C.ar    1  UNL1        0.0733
     33 C         144.0255  132.6129  156.4602 C.ar    1  UNL1        0.1760
     34 N         145.3011  131.8791  156.1695 N.ar    1  UNL1       -0.0621
     35 O         145.0486  130.4139  156.3680 O.2     1  UNL1       -0.3565
     36 C         142.3043  128.9537  155.7246 C.3     1  UNL1        0.0076
     37 C         142.9370  128.9399  157.0846 C.3     1  UNL1        0.0539
     38 C         143.5697  128.9261  158.4445 C.3     1  UNL1        0.0076
     39 C         142.2570  127.6377  157.3878 C.3     1  UNL1        0.0076
@<TRIPOS>BOND
     1    36    37    1
     2    37    38    1
     3    37    39    1
     4    37    31    1
     5    31    32   ar
     6    32    33   ar
     7    33    27    1
     8    27    28   am
     9    28    29    2
    10    28    26    1
    11    26     1    1
    12     1     2   ar
    13     2     3   ar
    14     3     4   ar
    15     4     7    1
    16     7     8   ar
    17     8     9   ar
    18     9    10   ar
    19    10    11   ar
    20    11    12   ar
    21    12    16    1
    22    16    17   ar
    23    17    18   ar
    24    18    19   ar
    25    19    22    1
    26    22    23    1
    27    22    24    2
    28    22    25    2
    29    19    20   ar
    30    20    21   ar
    31    12    13   ar
    32    13    14   ar
    33    14    15   ar
    34     4     5   ar
    35     5     6   ar
    36    33    34   ar
    37    34    35   ar
    38    35    31   ar
    39     6     1   ar
    40    15     7   ar
    41    15    10   ar
    42    21    16   ar
    43    27    30    1
@<TRIPOS>MOLECULE
*****
 39 43 0 0 0
SMALL
GASTEIGER

@<TRIPOS>ATOM
      1 C         138.6153  139.8084  156.1588 C.ar    1  UNL1       -0.0130
      2 C         139.3051  138.4774  156.1089 C.ar    1  UNL1       -0.0023
      3 C         140.2225  138.0658  157.2221 C.ar    1  UNL1        0.0173
      4 C         140.4500  138.9854  158.3852 C.ar    1  UNL1        0.0654
      5 C         139.7602  140.3163  158.4351 C.ar    1  UNL1        0.0173
      6 C         138.8429  140.7279  157.3219 C.ar    1  UNL1       -0.0023
      7 N         141.3673  138.5738  159.4984 N.ar    1  UNL1       -0.2879
      8 C         142.6023  137.7340  159.3583 C.ar    1  UNL1        0.1828
      9 N         143.2089  137.5710  160.7204 N.ar    1  UNL1       -0.2236
     10 C         142.3489  138.3100  161.7024 C.ar    1  UNL1        0.0991
     11 C         142.4551  138.4987  163.1866 C.ar    1  UNL1        0.0206
     12 C         141.4232  139.3072  163.9156 C.ar    1  UNL1        0.0016
     13 C         140.2850  139.9269  163.1603 C.ar    1  UNL1        0.0016
     14 C         140.1788  139.7383  161.6761 C.ar    1  UNL1        0.0191
     15 C         141.2107  138.9298  160.9471 C.ar    1  UNL1        0.0830
     16 C         141.5294  139.4959  165.3999 C.ar    1  UNL1        0.0001
     17 C         142.7611  139.0441  166.1272 C.ar    1  UNL1        0.0013
     18 C         142.8673  139.2328  167.6114 C.ar    1  UNL1        0.0183
     19 C         141.7418  139.8732  168.3685 C.ar    1  UNL1        0.1057
     20 C         140.5101  140.3250  167.6413 C.ar    1  UNL1        0.0183
     21 C         140.4039  140.1363  166.1570 C.ar    1  UNL1        0.0013
     22 S         141.8481  140.0619  169.8528 S.O2    1  UNL1        0.0104
     23 C         141.9543  140.2506  171.3371 C.3     1  UNL1        0.1816
     24 O         140.4181  139.6368  170.0092 O.2     1  UNL1       -0.1686
     25 O         143.2780  140.4870  169.6964 O.2     1  UNL1       -0.1686
     26 C         137.6980  140.2200  155.0456 C.3     1  UNL1        0.1117
     27 N         135.4689  140.2917  156.3783 N.am    1  UNL1       -0.2664
     28 C         136.2295  139.9285  155.1374 C.2     1  UNL1        0.2317
     29 O         135.5215  139.2740  153.9884 O.2     1  UNL1       -0.2744
     30 H         135.9336  140.7213  157.1325 H       1  UNL1        0.1564
     31 C         131.5906  140.1965  156.2588 C.ar    1  UNL1        0.1549
     32 C         132.8945  140.8721  155.9536 C.ar    1  UNL1        0.0733
     33 C         134.0004  140.0002  156.4701 C.ar    1  UNL1        0.1760
     34 N         133.3799  138.7857  157.0946 N.ar    1  UNL1       -0.0621
     35 O         131.8905  138.9070  156.9640 O.2     1  UNL1       -0.3565
     36 C         130.8483  141.8111  155.1002 C.3     1  UNL1        0.0076
     37 C         130.2262  140.7186  155.9185 C.3     1  UNL1        0.0539
     38 C         129.6040  139.6262  156.7367 C.3     1  UNL1        0.0076
     39 C         128.8617  141.2408  155.5782 C.3     1  UNL1        0.0076
@<TRIPOS>BOND
     1    36    37    1
     2    37    38    1
     3    37    39    1
     4    37    31    1
     5    31    32   ar
     6    32    33   ar
     7    33    27    1
     8    27    28   am
     9    28    29    2
    10    28    26    1
    11    26     1    1
    12     1     2   ar
    13     2     3   ar
    14     3     4   ar
    15     4     7    1
    16     7     8   ar
    17     8     9   ar
    18     9    10   ar
    19    10    11   ar
    20    11    12   ar
    21    12    16    1
    22    16    17   ar
    23    17    18   ar
    24    18    19   ar
    25    19    22    1
    26    22    23    1
    27    22    24    2
    28    22    25    2
    29    19    20   ar
    30    20    21   ar
    31    12    13   ar
    32    13    14   ar
    33    14    15   ar
    34     4     5   ar
    35     5     6   ar
    36    33    34   ar
    37    34    35   ar
    38    35    31   ar
    39     6     1   ar
    40    15     7   ar
    41    15    10   ar
    42    21    16   ar
    43    27    30    1
@<TRIPOS>MOLECULE
*****
 39 43 0 0 0
SMALL
GASTEIGER

@<TRIPOS>ATOM
      1 C         141.9136  135.8189  156.0141 C.ar    1  UNL1       -0.0130
      2 C         142.9761  136.1916  157.0051 C.ar    1  UNL1       -0.0023
      3 C         142.7202  137.2793  158.0058 C.ar    1  UNL1        0.0173
      4 C         141.4016  137.9944  158.0156 C.ar    1  UNL1        0.0654
      5 C         140.3391  137.6217  157.0246 C.ar    1  UNL1        0.0173
      6 C         140.5950  136.5340  156.0239 C.ar    1  UNL1       -0.0023
      7 N         141.1456  139.0821  159.0163 N.ar    1  UNL1       -0.2879
      8 C         140.6791  140.4735  158.7061 C.ar    1  UNL1        0.1828
      9 N         140.5564  141.2206  160.0010 N.ar    1  UNL1       -0.2236
     10 C         140.9471  140.2909  161.1115 C.ar    1  UNL1        0.0991
     11 C         141.0184  140.4772  162.5981 C.ar    1  UNL1        0.0206
     12 C         141.4538  139.3416  163.4761 C.ar    1  UNL1        0.0016
     13 C         141.8179  138.0199  162.8675 C.ar    1  UNL1        0.0016
     14 C         141.7467  137.8337  161.3809 C.ar    1  UNL1        0.0191
     15 C         141.3113  138.9692  160.5028 C.ar    1  UNL1        0.0830
     16 C         141.5250  139.5278  164.9629 C.ar    1  UNL1        0.0001
     17 C         140.4091  140.2218  165.6862 C.ar    1  UNL1        0.0013
     18 C         140.4803  140.4079  167.1728 C.ar    1  UNL1        0.0183
     19 C         141.6675  139.9002  167.9363 C.ar    1  UNL1        0.1057
     20 C         142.7834  139.2063  167.2130 C.ar    1  UNL1        0.0183
     21 C         142.7122  139.0201  165.7263 C.ar    1  UNL1        0.0013
     22 S         141.7387  140.0864  169.4230 S.O2    1  UNL1        0.0104
     23 C         141.8099  140.2726  170.9096 C.3     1  UNL1        0.1816
     24 O         140.2922  139.7073  169.5397 O.2     1  UNL1       -0.1686
     25 O         143.1853  140.4655  169.3062 O.2     1  UNL1       -0.1686
     26 C         142.1695  134.7312  155.0134 C.3     1  UNL1        0.1117
     27 N         141.3910  132.3341  154.3828 N.am    1  UNL1       -0.2664
     28 C         141.9451  133.2970  155.3908 C.2     1  UNL1        0.2317
     29 O         142.2748  132.8255  156.7761 O.2     1  UNL1       -0.2744
     30 H         141.1747  132.6436  153.4736 H       1  UNL1        0.1564
     31 C         140.1678  128.6981  154.9729 C.ar    1  UNL1        0.1549
     32 C         139.9774  130.0655  154.3866 C.ar    1  UNL1        0.0733
     33 C         141.1666  130.8998  154.7601 C.ar    1  UNL1        0.1760
     34 N         142.0921  130.0480  155.5773 N.ar    1  UNL1       -0.0621
     35 O         141.4748  128.6872  155.7088 O.2     1  UNL1       -0.3565
     36 C         139.3557  127.5955  153.3528 C.3     1  UNL1        0.0076
     37 C         139.2180  127.5441  154.8456 C.3     1  UNL1        0.0539
     38 C         139.0803  127.4927  156.3384 C.3     1  UNL1        0.0076
     39 C         138.2682  126.3901  154.7183 C.3     1  UNL1        0.0076
@<TRIPOS>BOND
     1    36    37    1
     2    37    38    1
     3    37    39    1
     4    37    31    1
     5    31    32   ar
     6    32    33   ar
     7    33    27    1
     8    27    28   am
     9    28    29    2
    10    28    26    1
    11    26     1    1
    12     1     2   ar
    13     2     3   ar
    14     3     4   ar
    15     4     7    1
    16     7     8   ar
    17     8     9   ar
    18     9    10   ar
    19    10    11   ar
    20    11    12   ar
    21    12    16    1
    22    16    17   ar
    23    17    18   ar
    24    18    19   ar
    25    19    22    1
    26    22    23    1
    27    22    24    2
    28    22    25    2
    29    19    20   ar
    30    20    21   ar
    31    12    13   ar
    32    13    14   ar
    33    14    15   ar
    34     4     5   ar
    35     5     6   ar
    36    33    34   ar
    37    34    35   ar
    38    35    31   ar
    39     6     1   ar
    40    15     7   ar
    41    15    10   ar
    42    21    16   ar
    43    27    30    1
@<TRIPOS>MOLECULE
*****
 39 43 0 0 0
SMALL
GASTEIGER

@<TRIPOS>ATOM
      1 C         140.3694  146.1596  155.8250 C.ar    1  UNL1       -0.0130
      2 C         139.9850  146.2846  157.2695 C.ar    1  UNL1       -0.0023
      3 C         140.7324  145.5100  158.3143 C.ar    1  UNL1        0.0173
      4 C         141.8644  144.6106  157.9145 C.ar    1  UNL1        0.0654
      5 C         142.2488  144.4857  156.4700 C.ar    1  UNL1        0.0173
      6 C         141.5013  145.2602  155.4253 C.ar    1  UNL1       -0.0023
      7 N         142.6118  143.8361  158.9592 N.ar    1  UNL1       -0.2879
      8 C         143.8450  143.0127  158.7324 C.ar    1  UNL1        0.1828
      9 N         144.2526  142.4168  160.0472 N.ar    1  UNL1       -0.2236
     10 C         143.2714  142.8718  161.0866 C.ar    1  UNL1        0.0991
     11 C         143.1703  142.6007  162.5583 C.ar    1  UNL1        0.0206
     12 C         142.0551  143.2068  163.3577 C.ar    1  UNL1        0.0016
     13 C         141.0410  144.0840  162.6852 C.ar    1  UNL1        0.0016
     14 C         141.1421  144.3551  161.2134 C.ar    1  UNL1        0.0191
     15 C         142.2573  143.7490  160.4141 C.ar    1  UNL1        0.0830
     16 C         141.9540  142.9357  164.8296 C.ar    1  UNL1        0.0001
     17 C         143.1810  142.5698  165.6108 C.ar    1  UNL1        0.0013
     18 C         143.0800  142.2987  167.0826 C.ar    1  UNL1        0.0183
     19 C         141.7517  142.3935  167.7733 C.ar    1  UNL1        0.1057
     20 C         140.5246  142.7594  166.9920 C.ar    1  UNL1        0.0183
     21 C         140.6258  143.0305  165.5201 C.ar    1  UNL1        0.0013
     22 S         141.6506  142.1225  169.2451 S.O2    1  UNL1        0.0104
     23 C         141.5495  141.8514  170.7169 C.3     1  UNL1        0.1816
     24 O         140.4253  142.9843  169.3196 O.2     1  UNL1       -0.1686
     25 O         142.8760  141.2606  169.1705 O.2     1  UNL1       -0.1686
     26 C         139.6220  146.9342  154.7803 C.3     1  UNL1        0.1117
     27 N         138.6701  149.1735  155.6909 N.am    1  UNL1       -0.2664
     28 C         139.6315  148.4338  154.8084 C.2     1  UNL1        0.2317
     29 O         140.6023  149.1938  153.9542 O.2     1  UNL1       -0.2744
     30 H         138.0329  148.6747  156.2516 H       1  UNL1        0.1564
     31 C         138.4951  152.9958  155.0394 C.ar    1  UNL1        0.1549
     32 C         138.3629  151.5787  154.5659 C.ar    1  UNL1        0.0733
     33 C         138.6796  150.6732  155.7190 C.ar    1  UNL1        0.1760
     34 N         139.0075  151.5307  156.9053 N.ar    1  UNL1       -0.0621
     35 O         138.8934  152.9662  156.4852 O.2     1  UNL1       -0.3565
     36 C         138.0546  153.3715  152.9986 C.3     1  UNL1        0.0076
     37 C         138.2686  154.2266  154.2123 C.3     1  UNL1        0.0539
     38 C         138.4826  155.0816  155.4261 C.3     1  UNL1        0.0076
     39 C         138.0421  155.4573  153.3852 C.3     1  UNL1        0.0076
@<TRIPOS>BOND
     1    36    37    1
     2    37    38    1
     3    37    39    1
     4    37    31    1
     5    31    32   ar
     6    32    33   ar
     7    33    27    1
     8    27    28   am
     9    28    29    2
    10    28    26    1
    11    26     1    1
    12     1     2   ar
    13     2     3   ar
    14     3     4   ar
    15     4     7    1
    16     7     8   ar
    17     8     9   ar
    18     9    10   ar
    19    10    11   ar
    20    11    12   ar
    21    12    16    1
    22    16    17   ar
    23    17    18   ar
    24    18    19   ar
    25    19    22    1
    26    22    23    1
    27    22    24    2
    28    22    25    2
    29    19    20   ar
    30    20    21   ar
    31    12    13   ar
    32    13    14   ar
    33    14    15   ar
    34     4     5   ar
    35     5     6   ar
    36    33    34   ar
    37    34    35   ar
    38    35    31   ar
    39     6     1   ar
    40    15     7   ar
    41    15    10   ar
    42    21    16   ar
    43    27    30    1
@<TRIPOS>MOLECULE
*****
 39 43 0 0 0
SMALL
GASTEIGER

@<TRIPOS>ATOM
      1 C         141.2581  138.2821  156.4595 C.ar    1  UNL1       -0.0130
      2 C         140.1146  137.8083  157.3067 C.ar    1  UNL1       -0.0023
      3 C         139.5408  138.7063  158.3623 C.ar    1  UNL1        0.0173
      4 C         140.1106  140.0782  158.5707 C.ar    1  UNL1        0.0654
      5 C         141.2540  140.5519  157.7234 C.ar    1  UNL1        0.0173
      6 C         141.8278  139.6539  156.6678 C.ar    1  UNL1       -0.0023
      7 N         139.5367  140.9763  159.6263 N.ar    1  UNL1       -0.2879
      8 C         138.5843  142.1119  159.3953 C.ar    1  UNL1        0.1828
      9 N         138.2736  142.7338  160.7244 N.ar    1  UNL1       -0.2236
     10 C         139.0340  141.9826  161.7769 C.ar    1  UNL1        0.0991
     11 C         139.1163  142.1473  163.2655 C.ar    1  UNL1        0.0206
     12 C         139.9794  141.2258  164.0754 C.ar    1  UNL1        0.0016
     13 C         140.7600  140.1396  163.3966 C.ar    1  UNL1        0.0016
     14 C         140.6777  139.9749  161.9080 C.ar    1  UNL1        0.0191
     15 C         139.8146  140.8964  161.0981 C.ar    1  UNL1        0.0830
     16 C         140.0617  141.3905  165.5641 C.ar    1  UNL1        0.0001
     17 C         139.6743  140.2568  166.4666 C.ar    1  UNL1        0.0013
     18 C         139.7567  140.4214  167.9553 C.ar    1  UNL1        0.0183
     19 C         140.2265  141.7198  168.5414 C.ar    1  UNL1        0.1057
     20 C         140.6140  142.8535  167.6389 C.ar    1  UNL1        0.0183
     21 C         140.5316  142.6888  166.1502 C.ar    1  UNL1        0.0013
     22 S         140.3089  141.8844  170.0300 S.O2    1  UNL1        0.0104
     23 C         140.3912  142.0491  171.5187 C.3     1  UNL1        0.1816
     24 O         139.0655  141.0609  170.1899 O.2     1  UNL1       -0.1686
     25 O         141.5523  142.7080  169.8702 O.2     1  UNL1       -0.1686
     26 C         141.8319  137.3840  155.4039 C.3     1  UNL1        0.1117
     27 N         142.0871  134.9917  156.3846 N.am    1  UNL1       -0.2664
     28 C         142.7020  136.2267  155.7957 C.2     1  UNL1        0.2317
     29 O         144.1870  136.3044  155.5987 O.2     1  UNL1       -0.2744
     30 H         141.1125  134.9407  156.5139 H       1  UNL1        0.1564
     31 C         143.9665  131.6286  156.8565 C.ar    1  UNL1        0.1549
     32 C         142.9353  132.4667  156.1608 C.ar    1  UNL1        0.0733
     33 C         142.9572  133.8344  156.7764 C.ar    1  UNL1        0.1760
     34 N         144.0021  133.8416  157.8526 N.ar    1  UNL1       -0.0621
     35 O         144.6259  132.4783  157.9021 O.2     1  UNL1       -0.3565
     36 C         144.1059  129.8532  158.0092 C.3     1  UNL1        0.0076
     37 C         144.2829  130.1929  156.5589 C.3     1  UNL1        0.0539
     38 C         144.4600  130.5325  155.1086 C.3     1  UNL1        0.0076
     39 C         144.5993  128.7571  156.2613 C.3     1  UNL1        0.0076
@<TRIPOS>BOND
     1    36    37    1
     2    37    38    1
     3    37    39    1
     4    37    31    1
     5    31    32   ar
     6    32    33   ar
     7    33    27    1
     8    27    28   am
     9    28    29    2
    10    28    26    1
    11    26     1    1
    12     1     2   ar
    13     2     3   ar
    14     3     4   ar
    15     4     7    1
    16     7     8   ar
    17     8     9   ar
    18     9    10   ar
    19    10    11   ar
    20    11    12   ar
    21    12    16    1
    22    16    17   ar
    23    17    18   ar
    24    18    19   ar
    25    19    22    1
    26    22    23    1
    27    22    24    2
    28    22    25    2
    29    19    20   ar
    30    20    21   ar
    31    12    13   ar
    32    13    14   ar
    33    14    15   ar
    34     4     5   ar
    35     5     6   ar
    36    33    34   ar
    37    34    35   ar
    38    35    31   ar
    39     6     1   ar
    40    15     7   ar
    41    15    10   ar
    42    21    16   ar
    43    27    30    1
@<TRIPOS>MOLECULE
*****
 39 43 0 0 0
SMALL
GASTEIGER

@<TRIPOS>ATOM
      1 C         143.4022  138.1398  156.1643 C.ar    1  UNL1       -0.0130
      2 C         142.7494  137.8380  157.4806 C.ar    1  UNL1       -0.0023
      3 C         142.8362  138.8269  158.6050 C.ar    1  UNL1        0.0173
      4 C         143.5760  140.1177  158.4132 C.ar    1  UNL1        0.0654
      5 C         144.2288  140.4195  157.0970 C.ar    1  UNL1        0.0173
      6 C         144.1420  139.4305  155.9725 C.ar    1  UNL1       -0.0023
      7 N         143.6628  141.1067  159.5377 N.ar    1  UNL1       -0.2879
      8 C         143.9956  142.5634  159.4070 C.ar    1  UNL1        0.1828
      9 N         143.9705  143.1695  160.7788 N.ar    1  UNL1       -0.2236
     10 C         143.6222  142.0873  161.7574 C.ar    1  UNL1        0.0991
     11 C         143.4537  142.0982  163.2479 C.ar    1  UNL1        0.0206
     12 C         143.0950  140.8341  163.9712 C.ar    1  UNL1        0.0016
     13 C         142.9047  139.5591  163.2041 C.ar    1  UNL1        0.0016
     14 C         143.0733  139.5483  161.7137 C.ar    1  UNL1        0.0191
     15 C         143.4320  140.8124  160.9904 C.ar    1  UNL1        0.0830
     16 C         142.9264  140.8448  165.4617 C.ar    1  UNL1        0.0001
     17 C         142.8774  142.1488  166.2015 C.ar    1  UNL1        0.0013
     18 C         142.7089  142.1596  167.6920 C.ar    1  UNL1        0.0183
     19 C         142.5893  140.8664  168.4427 C.ar    1  UNL1        0.1057
     20 C         142.6383  139.5624  167.7029 C.ar    1  UNL1        0.0183
     21 C         142.8069  139.5517  166.2123 C.ar    1  UNL1        0.0013
     22 S         142.4208  140.8772  169.9331 S.O2    1  UNL1        0.0104
     23 C         142.2522  140.8880  171.4235 C.3     1  UNL1        0.1816
     24 O         143.1608  139.5758  170.0262 O.2     1  UNL1       -0.1686
     25 O         141.6807  142.1786  169.8400 O.2     1  UNL1       -0.1686
     26 C         143.3154  137.1509  155.0398 C.3     1  UNL1        0.1117
     27 N         144.0480  134.8403  155.9751 N.am    1  UNL1       -0.2664
     28 C         143.0111  135.7109  155.3292 C.2     1  UNL1        0.2317
     29 O         141.6699  135.1415  154.9728 O.2     1  UNL1       -0.2744
     30 H         144.9282  135.2141  156.2090 H       1  UNL1        0.1564
     31 C         143.8874  130.9784  156.3286 C.ar    1  UNL1        0.1549
     32 C         144.5551  132.2206  155.8178 C.ar    1  UNL1        0.0733
     33 C         143.7436  133.4003  156.2645 C.ar    1  UNL1        0.1760
     34 N         142.5742  132.8873  157.0515 N.ar    1  UNL1       -0.0621
     35 O         142.6631  131.3904  157.0911 O.2     1  UNL1       -0.3565
     36 C         144.6943  129.9002  154.6896 C.3     1  UNL1        0.0076
     37 C         144.3608  129.5712  156.1146 C.3     1  UNL1        0.0539
     38 C         144.0272  129.2423  157.5396 C.3     1  UNL1        0.0076
     39 C         144.8342  128.1641  155.9006 C.3     1  UNL1        0.0076
@<TRIPOS>BOND
     1    36    37    1
     2    37    38    1
     3    37    39    1
     4    37    31    1
     5    31    32   ar
     6    32    33   ar
     7    33    27    1
     8    27    28   am
     9    28    29    2
    10    28    26    1
    11    26     1    1
    12     1     2   ar
    13     2     3   ar
    14     3     4   ar
    15     4     7    1
    16     7     8   ar
    17     8     9   ar
    18     9    10   ar
    19    10    11   ar
    20    11    12   ar
    21    12    16    1
    22    16    17   ar
    23    17    18   ar
    24    18    19   ar
    25    19    22    1
    26    22    23    1
    27    22    24    2
    28    22    25    2
    29    19    20   ar
    30    20    21   ar
    31    12    13   ar
    32    13    14   ar
    33    14    15   ar
    34     4     5   ar
    35     5     6   ar
    36    33    34   ar
    37    34    35   ar
    38    35    31   ar
    39     6     1   ar
    40    15     7   ar
    41    15    10   ar
    42    21    16   ar
    43    27    30    1
@<TRIPOS>MOLECULE
*****
 39 43 0 0 0
SMALL
GASTEIGER

@<TRIPOS>ATOM
      1 C         143.5758  143.6715  161.8504 C.ar    1  UNL1       -0.0130
      2 C         142.3043  143.7773  161.0618 C.ar    1  UNL1       -0.0023
      3 C         142.1488  143.0093  159.7827 C.ar    1  UNL1        0.0173
      4 C         143.2650  142.1353  159.2923 C.ar    1  UNL1        0.0654
      5 C         144.5365  142.0295  160.0809 C.ar    1  UNL1        0.0173
      6 C         144.6919  142.7975  161.3599 C.ar    1  UNL1       -0.0023
      7 N         143.1095  141.3673  158.0132 N.ar    1  UNL1       -0.2879
      8 C         143.0833  141.9512  156.6318 C.ar    1  UNL1        0.1828
      9 N         142.9106  140.8252  155.6559 N.ar    1  UNL1       -0.2236
     10 C         142.8300  139.5454  156.4342 C.ar    1  UNL1        0.0991
     11 C         142.6607  138.1183  156.0045 C.ar    1  UNL1        0.0206
     12 C         142.6142  137.0263  157.0317 C.ar    1  UNL1        0.0016
     13 C         142.7372  137.3613  158.4886 C.ar    1  UNL1        0.0016
     14 C         142.9066  138.7884  158.9183 C.ar    1  UNL1        0.0191
     15 C         142.9530  139.8804  157.8911 C.ar    1  UNL1        0.0830
     16 C         142.4448  135.5991  156.6020 C.ar    1  UNL1        0.0001
     17 C         141.4887  135.2567  155.4981 C.ar    1  UNL1        0.0013
     18 C         141.3193  133.8296  155.0683 C.ar    1  UNL1        0.0183
     19 C         142.1060  132.7449  155.7425 C.ar    1  UNL1        0.1057
     20 C         143.0621  133.0873  156.8465 C.ar    1  UNL1        0.0183
     21 C         143.2315  134.5145  157.2762 C.ar    1  UNL1        0.0013
     22 S         141.9366  131.3178  155.3128 S.O2    1  UNL1        0.0104
     23 C         141.7671  129.8907  154.8831 C.3     1  UNL1        0.1816
     24 O         141.1389  131.7699  154.1257 O.2     1  UNL1       -0.1686
     25 O         142.7342  130.8656  156.4999 O.2     1  UNL1       -0.1686
     26 C         143.7313  144.4395  163.1294 C.3     1  UNL1        0.1117
     27 N         142.3478  142.8139  164.6104 N.am    1  UNL1       -0.2664
     28 C         143.5015  143.7584  164.4459 C.2     1  UNL1        0.2317
     29 O         144.4254  144.0216  165.5979 O.2     1  UNL1       -0.2744
     30 H         141.7414  142.6412  163.8543 H       1  UNL1        0.1564
     31 C         141.0569  141.3335  167.9581 C.ar    1  UNL1        0.1549
     32 C         140.8382  142.1351  166.7093 C.ar    1  UNL1        0.0733
     33 C         142.1180  142.1328  165.9269 C.ar    1  UNL1        0.1760
     34 N         143.1276  141.3298  166.6922 N.ar    1  UNL1       -0.0621
     35 O         142.4719  140.8358  167.9476 O.2     1  UNL1       -0.3565
     36 C         139.4447  139.9761  168.1994 C.3     1  UNL1        0.0076
     37 C         140.0393  141.0750  169.0294 C.3     1  UNL1        0.0539
     38 C         140.6339  142.1739  169.8594 C.3     1  UNL1        0.0076
     39 C         139.0217  140.8165  170.1007 C.3     1  UNL1        0.0076
@<TRIPOS>BOND
     1    36    37    1
     2    37    38    1
     3    37    39    1
     4    37    31    1
     5    31    32   ar
     6    32    33   ar
     7    33    27    1
     8    27    28   am
     9    28    29    2
    10    28    26    1
    11    26     1    1
    12     1     2   ar
    13     2     3   ar
    14     3     4   ar
    15     4     7    1
    16     7     8   ar
    17     8     9   ar
    18     9    10   ar
    19    10    11   ar
    20    11    12   ar
    21    12    16    1
    22    16    17   ar
    23    17    18   ar
    24    18    19   ar
    25    19    22    1
    26    22    23    1
    27    22    24    2
    28    22    25    2
    29    19    20   ar
    30    20    21   ar
    31    12    13   ar
    32    13    14   ar
    33    14    15   ar
    34     4     5   ar
    35     5     6   ar
    36    33    34   ar
    37    34    35   ar
    38    35    31   ar
    39     6     1   ar
    40    15     7   ar
    41    15    10   ar
    42    21    16   ar
    43    27    30    1
