@<TRIPOS>MOLECULE
*****
 16 17 0 0 0
SMALL
GASTEIGER

@<TRIPOS>ATOM
      1 C         140.3517  144.1603  169.9668 C.3     1  UNL1        0.0319
      2 C         141.0950  142.9412  169.5072 C.ar    1  UNL1       -0.0116
      3 C         140.4487  141.9860  168.5480 C.ar    1  UNL1       -0.0076
      4 C         141.1919  140.7669  168.0884 C.ar    1  UNL1       -0.0211
      5 C         142.5814  140.5028  168.5880 C.ar    1  UNL1       -0.0034
      6 C         143.2277  141.4579  169.5472 C.ar    1  UNL1        0.0108
      7 C         142.4844  142.6771  170.0068 C.ar    1  UNL1        0.0537
      8 CL        143.1307  143.6322  170.9660 Cl      1  UNL1       -0.0826
      9 C         140.5457  139.8117  167.1292 C.3     1  UNL1        0.0424
     10 C         139.0851  139.5530  167.3531 C.3     1  UNL1        0.0315
     11 C         138.1636  138.6602  166.5760 C.2     1  UNL1       -0.0289
     12 C         138.4750  137.8057  165.3833 C.2     1  UNL1       -0.0136
     13 C         139.7847  137.6328  164.6729 C.3     1  UNL1        0.0950
     14 N         141.1066  138.2718  164.9799 N.3     1  UNL1       -0.2935
     15 C         141.4452  139.2415  166.0731 C.3     1  UNL1        0.0735
     16 H         141.3617  138.7572  164.1198 H       1  UNL1        0.1236
@<TRIPOS>BOND
     1     1     2    1
     2     2     3   ar
     3     3     4   ar
     4     4     9    1
     5     9    10    1
     6    10    11    1
     7    11    12    2
     8    12    13    1
     9    13    14    1
    10    14    15    1
    11     4     5   ar
    12     5     6   ar
    13     6     7   ar
    14     7     8    1
    15     7     2   ar
    16    15     9    1
    17    14    16    1
@<TRIPOS>MOLECULE
*****
 16 17 0 0 0
SMALL
GASTEIGER

@<TRIPOS>ATOM
      1 C         140.9429  142.5111  170.6313 C.3     1  UNL1        0.0319
      2 C         141.3675  142.4793  169.1930 C.ar    1  UNL1       -0.0116
      3 C         140.3441  142.6223  168.1055 C.ar    1  UNL1       -0.0076
      4 C         140.7687  142.5905  166.6673 C.ar    1  UNL1       -0.0211
      5 C         142.2166  142.4157  166.3164 C.ar    1  UNL1       -0.0034
      6 C         143.2399  142.2727  167.4037 C.ar    1  UNL1        0.0108
      7 C         142.8153  142.3045  168.8421 C.ar    1  UNL1        0.0537
      8 CL        143.8386  142.1615  169.9294 Cl      1  UNL1       -0.0826
      9 C         139.7455  142.7335  165.5798 C.3     1  UNL1        0.0424
     10 C         139.6342  144.0978  164.9663 C.3     1  UNL1        0.0315
     11 C         138.7187  144.5589  163.8711 C.2     1  UNL1       -0.0289
     12 C         137.6886  143.7697  163.1190 C.2     1  UNL1       -0.0136
     13 C         137.3194  142.3243  163.2762 C.3     1  UNL1        0.0950
     14 N         137.8891  141.3113  164.2245 N.3     1  UNL1       -0.2935
     15 C         138.9689  141.4935  165.2497 C.3     1  UNL1        0.0735
     16 H         138.2319  140.5624  163.6227 H       1  UNL1        0.1236
@<TRIPOS>BOND
     1     1     2    1
     2     2     3   ar
     3     3     4   ar
     4     4     9    1
     5     9    10    1
     6    10    11    1
     7    11    12    2
     8    12    13    1
     9    13    14    1
    10    14    15    1
    11     4     5   ar
    12     5     6   ar
    13     6     7   ar
    14     7     8    1
    15     7     2   ar
    16    15     9    1
    17    14    16    1
@<TRIPOS>MOLECULE
*****
 16 17 0 0 0
SMALL
GASTEIGER

@<TRIPOS>ATOM
      1 C         137.2773  141.5345  163.1207 C.3     1  UNL1        0.0319
      2 C         138.0817  140.4090  163.7003 C.ar    1  UNL1       -0.0116
      3 C         138.7325  140.5659  165.0427 C.ar    1  UNL1       -0.0076
      4 C         139.5369  139.4404  165.6224 C.ar    1  UNL1       -0.0211
      5 C         139.6906  138.1580  164.8598 C.ar    1  UNL1       -0.0034
      6 C         139.0399  138.0009  163.5174 C.ar    1  UNL1        0.0108
      7 C         138.2354  139.1265  162.9377 C.ar    1  UNL1        0.0537
      8 CL        137.5847  138.9696  161.5954 Cl      1  UNL1       -0.0826
      9 C         140.1877  139.5973  166.9647 C.3     1  UNL1        0.0424
     10 C         141.6868  139.5425  166.9716 C.3     1  UNL1        0.0315
     11 C         142.6218  139.6652  168.1382 C.2     1  UNL1       -0.0289
     12 C         142.2887  139.8728  169.5858 C.2     1  UNL1       -0.0136
     13 C         140.9384  140.0092  170.2246 C.3     1  UNL1        0.0950
     14 N         139.5876  139.9715  169.5735 N.3     1  UNL1       -0.2935
     15 C         139.2536  139.7882  168.1226 C.3     1  UNL1        0.0735
     16 H         139.1583  140.8622  169.8240 H       1  UNL1        0.1236
@<TRIPOS>BOND
     1     1     2    1
     2     2     3   ar
     3     3     4   ar
     4     4     9    1
     5     9    10    1
     6    10    11    1
     7    11    12    2
     8    12    13    1
     9    13    14    1
    10    14    15    1
    11     4     5   ar
    12     5     6   ar
    13     6     7   ar
    14     7     8    1
    15     7     2   ar
    16    15     9    1
    17    14    16    1
@<TRIPOS>MOLECULE
*****
 16 17 0 0 0
SMALL
GASTEIGER

@<TRIPOS>ATOM
      1 C         138.2291  139.0827  167.1992 C.3     1  UNL1        0.0319
      2 C         139.4491  139.8506  167.6136 C.ar    1  UNL1       -0.0116
      3 C         140.5684  140.0639  166.6378 C.ar    1  UNL1       -0.0076
      4 C         141.7884  140.8318  167.0521 C.ar    1  UNL1       -0.0211
      5 C         141.8893  141.3865  168.4421 C.ar    1  UNL1       -0.0034
      6 C         140.7702  141.1733  169.4179 C.ar    1  UNL1        0.0108
      7 C         139.5501  140.4053  169.0036 C.ar    1  UNL1        0.0537
      8 CL        138.4310  140.1920  169.9792 Cl      1  UNL1       -0.0826
      9 C         142.9076  141.0451  166.0765 C.3     1  UNL1        0.0424
     10 C         143.3599  142.4651  165.9053 C.3     1  UNL1        0.0315
     11 C         144.4428  143.0010  165.0163 C.2     1  UNL1       -0.0289
     12 C         145.3408  142.2493  164.0791 C.2     1  UNL1       -0.0136
     13 C         145.3778  140.7760  163.7993 C.3     1  UNL1        0.0950
     14 N         144.5259  139.6907  164.3876 N.3     1  UNL1       -0.2935
     15 C         143.4265  139.8105  165.4011 C.3     1  UNL1        0.0735
     16 H         145.1919  139.0429  164.8085 H       1  UNL1        0.1236
@<TRIPOS>BOND
     1     1     2    1
     2     2     3   ar
     3     3     4   ar
     4     4     9    1
     5     9    10    1
     6    10    11    1
     7    11    12    2
     8    12    13    1
     9    13    14    1
    10    14    15    1
    11     4     5   ar
    12     5     6   ar
    13     6     7   ar
    14     7     8    1
    15     7     2   ar
    16    15     9    1
    17    14    16    1
@<TRIPOS>MOLECULE
*****
 16 17 0 0 0
SMALL
GASTEIGER

@<TRIPOS>ATOM
      1 C         139.9981  139.9158  170.7323 C.3     1  UNL1        0.0319
      2 C         140.5488  140.0216  169.3411 C.ar    1  UNL1       -0.0116
      3 C         139.7384  140.6756  168.2614 C.ar    1  UNL1       -0.0076
      4 C         140.2892  140.7814  166.8702 C.ar    1  UNL1       -0.0211
      5 C         141.6502  140.2332  166.5587 C.ar    1  UNL1       -0.0034
      6 C         142.4606  139.5792  167.6383 C.ar    1  UNL1        0.0108
      7 C         141.9098  139.4734  169.0296 C.ar    1  UNL1        0.0537
      8 CL        142.7201  138.8194  170.1092 Cl      1  UNL1       -0.0826
      9 C         139.4789  141.4353  165.7905 C.3     1  UNL1        0.0424
     10 C         139.7118  142.9052  165.6019 C.3     1  UNL1        0.0315
     11 C         139.0661  143.8357  164.6184 C.2     1  UNL1       -0.0289
     12 C         138.0283  143.5263  163.5806 C.2     1  UNL1       -0.0136
     13 C         137.3796  142.2100  163.2700 C.3     1  UNL1        0.0950
     14 N         137.6087  140.8779  163.9204 N.3     1  UNL1       -0.2935
     15 C         138.5430  140.5332  165.0422 C.3     1  UNL1        0.0735
     16 H         137.8909  140.2651  163.1554 H       1  UNL1        0.1236
@<TRIPOS>BOND
     1     1     2    1
     2     2     3   ar
     3     3     4   ar
     4     4     9    1
     5     9    10    1
     6    10    11    1
     7    11    12    2
     8    12    13    1
     9    13    14    1
    10    14    15    1
    11     4     5   ar
    12     5     6   ar
    13     6     7   ar
    14     7     8    1
    15     7     2   ar
    16    15     9    1
    17    14    16    1
@<TRIPOS>MOLECULE
*****
 16 17 0 0 0
SMALL
GASTEIGER

@<TRIPOS>ATOM
      1 C         141.7739  137.9752  163.8119 C.3     1  UNL1        0.0319
      2 C         140.8014  138.4902  164.8311 C.ar    1  UNL1       -0.0116
      3 C         141.2959  139.2735  166.0110 C.ar    1  UNL1       -0.0076
      4 C         140.3233  139.7886  167.0302 C.ar    1  UNL1       -0.0211
      5 C         138.8563  139.5204  166.8696 C.ar    1  UNL1       -0.0034
      6 C         138.3617  138.7371  165.6897 C.ar    1  UNL1        0.0108
      7 C         139.3343  138.2221  164.6705 C.ar    1  UNL1        0.0537
      8 CL        138.8398  137.4388  163.4907 Cl      1  UNL1       -0.0826
      9 C         140.8178  140.5718  168.2100 C.3     1  UNL1        0.0424
     10 C         142.0625  141.3772  167.9811 C.3     1  UNL1        0.0315
     11 C         142.7990  142.2558  168.9484 C.2     1  UNL1       -0.0289
     12 C         142.4728  142.5460  170.3834 C.2     1  UNL1       -0.0136
     13 C         141.3295  142.0294  171.2056 C.3     1  UNL1        0.0950
     14 N         140.2300  141.0949  170.7958 N.3     1  UNL1       -0.2935
     15 C         140.0024  140.4462  169.4626 C.3     1  UNL1        0.0735
     16 H         139.3717  141.6153  170.9767 H       1  UNL1        0.1236
@<TRIPOS>BOND
     1     1     2    1
     2     2     3   ar
     3     3     4   ar
     4     4     9    1
     5     9    10    1
     6    10    11    1
     7    11    12    2
     8    12    13    1
     9    13    14    1
    10    14    15    1
    11     4     5   ar
    12     5     6   ar
    13     6     7   ar
    14     7     8    1
    15     7     2   ar
    16    15     9    1
    17    14    16    1
@<TRIPOS>MOLECULE
*****
 16 17 0 0 0
SMALL
GASTEIGER

@<TRIPOS>ATOM
      1 C         139.2224  140.5551  170.0287 C.3     1  UNL1        0.0319
      2 C         140.0806  140.1619  168.8630 C.ar    1  UNL1       -0.0116
      3 C         139.4567  139.9183  167.5208 C.ar    1  UNL1       -0.0076
      4 C         140.3149  139.5251  166.3551 C.ar    1  UNL1       -0.0211
      5 C         141.7969  139.3755  166.5315 C.ar    1  UNL1       -0.0034
      6 C         142.4209  139.6192  167.8737 C.ar    1  UNL1        0.0108
      7 C         141.5626  140.0124  169.0395 C.ar    1  UNL1        0.0537
      8 CL        142.1865  140.2560  170.3816 Cl      1  UNL1       -0.0826
      9 C         139.6910  139.2814  165.0129 C.3     1  UNL1        0.0424
     10 C         140.1981  138.0824  164.2676 C.3     1  UNL1        0.0315
     11 C         139.7820  137.5748  162.9188 C.2     1  UNL1       -0.0289
     12 C         138.7562  138.1408  161.9822 C.2     1  UNL1       -0.0136
     13 C         137.8930  139.3541  162.1630 C.3     1  UNL1        0.0950
     14 N         137.8425  140.3012  163.3252 N.3     1  UNL1       -0.2935
     15 C         138.6427  140.2688  164.5935 C.3     1  UNL1        0.0735
     16 H         136.8711  140.2737  163.6352 H       1  UNL1        0.1236
@<TRIPOS>BOND
     1     1     2    1
     2     2     3   ar
     3     3     4   ar
     4     4     9    1
     5     9    10    1
     6    10    11    1
     7    11    12    2
     8    12    13    1
     9    13    14    1
    10    14    15    1
    11     4     5   ar
    12     5     6   ar
    13     6     7   ar
    14     7     8    1
    15     7     2   ar
    16    15     9    1
    17    14    16    1
@<TRIPOS>MOLECULE
*****
 16 17 0 0 0
SMALL
GASTEIGER

@<TRIPOS>ATOM
      1 C         140.4162  143.6189  169.8610 C.3     1  UNL1        0.0319
      2 C         140.6668  142.4054  169.0157 C.ar    1  UNL1       -0.0116
      3 C         141.7333  142.4332  167.9612 C.ar    1  UNL1       -0.0076
      4 C         141.9839  141.2197  167.1158 C.ar    1  UNL1       -0.0211
      5 C         141.1680  139.9785  167.3249 C.ar    1  UNL1       -0.0034
      6 C         140.1015  139.9507  168.3793 C.ar    1  UNL1        0.0108
      7 C         139.8509  141.1642  169.2247 C.ar    1  UNL1        0.0537
      8 CL        138.7844  141.1365  170.2791 Cl      1  UNL1       -0.0826
      9 C         143.0504  141.2474  166.0614 C.3     1  UNL1        0.0424
     10 C         143.3782  139.9256  165.4325 C.3     1  UNL1        0.0315
     11 C         144.3846  139.6231  164.3621 C.2     1  UNL1       -0.0289
     12 C         145.3117  140.5676  163.6564 C.2     1  UNL1       -0.0136
     13 C         145.4615  142.0480  163.8466 C.3     1  UNL1        0.0950
     14 N         144.7211  142.9494  164.7896 N.3     1  UNL1       -0.2935
     15 C         143.6480  142.5930  165.7753 C.3     1  UNL1        0.0735
     16 H         144.2919  143.6519  164.1874 H       1  UNL1        0.1236
@<TRIPOS>BOND
     1     1     2    1
     2     2     3   ar
     3     3     4   ar
     4     4     9    1
     5     9    10    1
     6    10    11    1
     7    11    12    2
     8    12    13    1
     9    13    14    1
    10    14    15    1
    11     4     5   ar
    12     5     6   ar
    13     6     7   ar
    14     7     8    1
    15     7     2   ar
    16    15     9    1
    17    14    16    1
@<TRIPOS>MOLECULE
*****
 16 17 0 0 0
SMALL
GASTEIGER

@<TRIPOS>ATOM
      1 C         143.2790  142.1949  169.0701 C.3     1  UNL1        0.0319
      2 C         142.0572  141.6681  168.3775 C.ar    1  UNL1       -0.0116
      3 C         141.4459  142.4392  167.2452 C.ar    1  UNL1       -0.0076
      4 C         140.2241  141.9124  166.5527 C.ar    1  UNL1       -0.0211
      5 C         139.6136  140.6148  166.9923 C.ar    1  UNL1       -0.0034
      6 C         140.2248  139.8437  168.1245 C.ar    1  UNL1        0.0108
      7 C         141.4467  140.3705  168.8171 C.ar    1  UNL1        0.0537
      8 CL        142.0580  139.5995  169.9493 Cl      1  UNL1       -0.0826
      9 C         139.6127  142.6834  165.4205 C.3     1  UNL1        0.0424
     10 C         138.4314  142.0391  164.7575 C.3     1  UNL1        0.0315
     11 C         137.6091  142.5490  163.6112 C.2     1  UNL1       -0.0289
     12 C         137.7650  143.8289  162.8449 C.2     1  UNL1       -0.0136
     13 C         138.7817  144.9152  163.0354 C.3     1  UNL1        0.0950
     14 N         139.8936  144.9898  164.0395 N.3     1  UNL1       -0.2935
     15 C         140.2634  143.9965  165.1009 C.3     1  UNL1        0.0735
     16 H         139.7197  145.8559  164.5494 H       1  UNL1        0.1236
@<TRIPOS>BOND
     1     1     2    1
     2     2     3   ar
     3     3     4   ar
     4     4     9    1
     5     9    10    1
     6    10    11    1
     7    11    12    2
     8    12    13    1
     9    13    14    1
    10    14    15    1
    11     4     5   ar
    12     5     6   ar
    13     6     7   ar
    14     7     8    1
    15     7     2   ar
    16    15     9    1
    17    14    16    1
