@<TRIPOS>MOLECULE
*****
 26 28 0 0 0
SMALL
GASTEIGER

@<TRIPOS>ATOM
      1 C         139.4073  143.2146  160.9771 C.3     1  UNL1        0.0931
      2 O         137.2084  142.0384  162.6449 O.2     1  UNL1       -0.2701
      3 C         138.5756  141.4215  162.6632 C.2     1  UNL1        0.2459
      4 N         139.6750  142.0096  161.8293 N.am    1  UNL1       -0.3008
      5 H         140.5723  141.6047  161.8412 H       1  UNL1        0.1497
      6 C         138.8433  140.2165  163.5154 C.ar    1  UNL1        0.0550
      7 C         139.8376  139.1866  163.0669 C.ar    1  UNL1        0.0160
      8 C         140.1053  137.9816  163.9191 C.ar    1  UNL1        0.0587
      9 CL        141.0994  136.9518  163.4707 Cl      1  UNL1       -0.0822
     10 C         139.3788  137.8064  165.2198 C.ar    1  UNL1        0.0228
     11 C         138.3846  138.8362  165.6681 C.ar    1  UNL1        0.0587
     12 CL        137.6581  138.6611  166.9688 Cl      1  UNL1       -0.0822
     13 C         138.1169  140.0413  164.8159 C.ar    1  UNL1        0.0160
     14 C         139.7767  144.5812  161.4732 C.3     1  UNL1        0.0615
     15 C         139.1581  145.1149  162.7312 C.3     1  UNL1        0.1656
     16 N         139.9779  145.2231  163.9827 N.pl3   1  UNL1       -0.2201
     17 H         140.2470  146.1081  164.3198 H       1  UNL1        0.2456
     18 C         140.3875  143.9831  164.7206 C.cat   1  UNL1        0.4200
     19 N         139.8254  143.5088  166.0279 N.2     1  UNL1       -0.0679
     20 C         140.5217  142.2322  166.3960 C.2     1  UNL1        0.1887
     21 C         140.3802  141.3157  167.5749 C.2     1  UNL1        0.0395
     22 C         141.2312  140.0844  167.6740 C.2     1  UNL1       -0.0010
     23 C         142.2236  139.7697  166.5941 C.2     1  UNL1       -0.0181
     24 C         142.3650  140.6862  165.4152 C.3     1  UNL1        0.0932
     25 C         141.5141  141.9174  165.3161 C.2     1  UNL1        0.1744
     26 N         141.4311  142.9996  164.2807 N.2     1  UNL1       -0.0718
@<TRIPOS>BOND
     1     2     3    2
     2     3     4   am
     3     4     1    1
     4     1    14    1
     5    14    15    1
     6    15    16    1
     7    16    18    1
     8    18    19    2
     9    19    20    1
    10    20    21    2
    11    21    22    1
    12    22    23    2
    13    23    24    1
    14    24    25    1
    15    25    26    2
    16     3     6    1
    17     6     7   ar
    18     7     8   ar
    19     8     9    1
    20     8    10   ar
    21    10    11   ar
    22    11    12    1
    23    11    13   ar
    24    26    18    1
    25    13     6   ar
    26    25    20    1
    27     4     5    1
    28    16    17    1
@<TRIPOS>MOLECULE
*****
 26 28 0 0 0
SMALL
GASTEIGER

@<TRIPOS>ATOM
      1 C         139.3887  137.7105  163.0705 C.3     1  UNL1        0.0931
      2 O         138.2316  139.4700  165.2071 O.2     1  UNL1       -0.2701
      3 C         139.6773  139.6009  164.8291 C.2     1  UNL1        0.2459
      4 N         140.2559  138.7212  163.7608 N.am    1  UNL1       -0.3008
      5 H         141.2047  138.8071  163.5127 H       1  UNL1        0.1497
      6 C         140.5445  140.6116  165.5195 C.ar    1  UNL1        0.0550
      7 C         140.0214  141.3610  166.7090 C.ar    1  UNL1        0.0160
      8 C         140.8885  142.3717  167.3993 C.ar    1  UNL1        0.0587
      9 CL        140.3655  143.1211  168.5888 Cl      1  UNL1       -0.0822
     10 C         142.2787  142.6330  166.9002 C.ar    1  UNL1        0.0228
     11 C         142.8017  141.8836  165.7107 C.ar    1  UNL1        0.0587
     12 CL        144.1920  142.1449  165.2115 Cl      1  UNL1       -0.0822
     13 C         141.9346  140.8729  165.0204 C.ar    1  UNL1        0.0160
     14 C         138.8668  137.9870  161.6916 C.3     1  UNL1        0.0615
     15 C         137.4651  138.4879  161.5067 C.3     1  UNL1        0.1656
     16 N         137.2247  139.9132  161.1060 N.pl3   1  UNL1       -0.2201
     17 H         136.6968  140.1157  160.3001 H       1  UNL1        0.2456
     18 C         137.7888  141.0302  161.9332 C.cat   1  UNL1        0.4200
     19 N         139.1683  141.6067  161.8130 N.2     1  UNL1       -0.0679
     20 C         139.3044  142.6996  162.8314 C.2     1  UNL1        0.1887
     21 C         140.4406  143.6174  163.1729 C.2     1  UNL1        0.0395
     22 C         140.2813  144.6341  164.2641 C.2     1  UNL1       -0.0010
     23 C         138.9859  144.7330  165.0139 C.2     1  UNL1       -0.0181
     24 C         137.8497  143.8152  164.6723 C.3     1  UNL1        0.0932
     25 C         138.0090  142.7985  163.5811 C.2     1  UNL1        0.1744
     26 N         137.0723  141.7667  163.0260 N.2     1  UNL1       -0.0718
@<TRIPOS>BOND
     1     2     3    2
     2     3     4   am
     3     4     1    1
     4     1    14    1
     5    14    15    1
     6    15    16    1
     7    16    18    1
     8    18    19    2
     9    19    20    1
    10    20    21    2
    11    21    22    1
    12    22    23    2
    13    23    24    1
    14    24    25    1
    15    25    26    2
    16     3     6    1
    17     6     7   ar
    18     7     8   ar
    19     8     9    1
    20     8    10   ar
    21    10    11   ar
    22    11    12    1
    23    11    13   ar
    24    26    18    1
    25    13     6   ar
    26    25    20    1
    27     4     5    1
    28    16    17    1
@<TRIPOS>MOLECULE
*****
 26 28 0 0 0
SMALL
GASTEIGER

@<TRIPOS>ATOM
      1 C         139.6785  137.6871  162.8700 C.3     1  UNL1        0.0931
      2 O         138.4951  139.1926  165.1794 O.2     1  UNL1       -0.2701
      3 C         139.8890  139.5006  164.7185 C.2     1  UNL1        0.2459
      4 N         140.4807  138.7479  163.5639 N.am    1  UNL1       -0.3008
      5 H         141.3955  138.9500  163.2614 H       1  UNL1        0.1497
      6 C         140.6912  140.5613  165.4124 C.ar    1  UNL1        0.0550
      7 C         142.0814  140.8762  164.9452 C.ar    1  UNL1        0.0160
      8 C         142.8835  141.9369  165.6390 C.ar    1  UNL1        0.0587
      9 CL        144.2737  142.2519  165.1719 Cl      1  UNL1       -0.0822
     10 C         142.2954  142.6828  166.8001 C.ar    1  UNL1        0.0228
     11 C         140.9053  142.3679  167.2672 C.ar    1  UNL1        0.0587
     12 CL        140.3172  143.1137  168.4283 Cl      1  UNL1       -0.0822
     13 C         140.1032  141.3071  166.5734 C.ar    1  UNL1        0.0160
     14 C         138.9957  137.9933  161.5700 C.3     1  UNL1        0.0615
     15 C         137.5596  138.4264  161.5609 C.3     1  UNL1        0.1656
     16 N         137.2053  139.8421  161.2142 N.pl3   1  UNL1       -0.2201
     17 H         136.5959  140.0273  160.4635 H       1  UNL1        0.2456
     18 C         137.7795  140.9756  162.0113 C.cat   1  UNL1        0.4200
     19 N         137.0729  141.7419  163.0899 N.2     1  UNL1       -0.0679
     20 C         138.0179  142.7818  163.6149 C.2     1  UNL1        0.1887
     21 C         137.8698  143.8252  164.6822 C.2     1  UNL1        0.0395
     22 C         139.0124  144.7451  164.9954 C.2     1  UNL1       -0.0010
     23 C         140.3031  144.6216  164.2412 C.2     1  UNL1       -0.0181
     24 C         140.4512  143.5781  163.1739 C.3     1  UNL1        0.0932
     25 C         139.3086  142.6583  162.8607 C.2     1  UNL1        0.1744
     26 N         139.1613  141.5420  161.8696 N.2     1  UNL1       -0.0718
@<TRIPOS>BOND
     1     2     3    2
     2     3     4   am
     3     4     1    1
     4     1    14    1
     5    14    15    1
     6    15    16    1
     7    16    18    1
     8    18    19    2
     9    19    20    1
    10    20    21    2
    11    21    22    1
    12    22    23    2
    13    23    24    1
    14    24    25    1
    15    25    26    2
    16     3     6    1
    17     6     7   ar
    18     7     8   ar
    19     8     9    1
    20     8    10   ar
    21    10    11   ar
    22    11    12    1
    23    11    13   ar
    24    26    18    1
    25    13     6   ar
    26    25    20    1
    27     4     5    1
    28    16    17    1
@<TRIPOS>MOLECULE
*****
 26 28 0 0 0
SMALL
GASTEIGER

@<TRIPOS>ATOM
      1 C         140.0407  140.6557  169.1850 C.3     1  UNL1        0.0931
      2 O         138.1030  138.8207  167.8145 O.2     1  UNL1       -0.2701
      3 C         138.8359  139.8636  167.0238 C.2     1  UNL1        0.2459
      4 N         139.8047  140.7811  167.7090 N.am    1  UNL1       -0.3008
      5 H         140.2858  141.4656  167.1901 H       1  UNL1        0.1497
      6 C         138.6000  139.9890  165.5478 C.ar    1  UNL1        0.0550
      7 C         138.2239  141.3162  164.9585 C.ar    1  UNL1        0.0160
      8 C         137.9880  141.4416  163.4824 C.ar    1  UNL1        0.0587
      9 CL        137.6119  142.7687  162.8931 Cl      1  UNL1       -0.0822
     10 C         138.1281  140.2398  162.5957 C.ar    1  UNL1        0.0228
     11 C         138.5041  138.9127  163.1851 C.ar    1  UNL1        0.0587
     12 CL        138.6442  137.7109  162.2984 Cl      1  UNL1       -0.0822
     13 C         138.7401  138.7873  164.6611 C.ar    1  UNL1        0.0160
     14 C         141.0694  139.6935  169.7011 C.3     1  UNL1        0.0615
     15 C         142.5074  139.8485  169.3036 C.3     1  UNL1        0.1656
     16 N         143.1036  138.9350  168.2741 N.pl3   1  UNL1       -0.2201
     17 H         143.6862  138.1921  168.5534 H       1  UNL1        0.2456
     18 C         142.8124  139.1533  166.8189 C.cat   1  UNL1        0.4200
     19 N         142.8933  138.1162  165.7383 N.2     1  UNL1       -0.0679
     20 C         142.5199  138.7689  164.4403 C.2     1  UNL1        0.1887
     21 C         142.4235  138.2376  163.0409 C.2     1  UNL1        0.0395
     22 C         142.0154  139.1469  161.9200 C.2     1  UNL1       -0.0010
     23 C         141.7037  140.5875  162.1985 C.2     1  UNL1       -0.0181
     24 C         141.8001  141.1188  163.5979 C.3     1  UNL1        0.0932
     25 C         142.2082  140.2095  164.7188 C.2     1  UNL1        0.1744
     26 N         142.3890  140.4470  166.1888 N.2     1  UNL1       -0.0718
@<TRIPOS>BOND
     1     2     3    2
     2     3     4   am
     3     4     1    1
     4     1    14    1
     5    14    15    1
     6    15    16    1
     7    16    18    1
     8    18    19    2
     9    19    20    1
    10    20    21    2
    11    21    22    1
    12    22    23    2
    13    23    24    1
    14    24    25    1
    15    25    26    2
    16     3     6    1
    17     6     7   ar
    18     7     8   ar
    19     8     9    1
    20     8    10   ar
    21    10    11   ar
    22    11    12    1
    23    11    13   ar
    24    26    18    1
    25    13     6   ar
    26    25    20    1
    27     4     5    1
    28    16    17    1
@<TRIPOS>MOLECULE
*****
 26 28 0 0 0
SMALL
GASTEIGER

@<TRIPOS>ATOM
      1 C         144.8342  142.5840  164.3178 C.3     1  UNL1        0.0931
      2 O         142.8102  143.1661  162.1813 O.2     1  UNL1       -0.2701
      3 C         142.3607  142.8953  163.5866 C.2     1  UNL1        0.2459
      4 N         143.3727  142.6043  164.6548 N.am    1  UNL1       -0.3008
      5 H         143.0777  142.4266  165.5771 H       1  UNL1        0.1497
      6 C         140.8992  142.9155  163.9236 C.ar    1  UNL1        0.0550
      7 C         140.0045  141.8093  163.4483 C.ar    1  UNL1        0.0160
      8 C         138.5430  141.8295  163.7853 C.ar    1  UNL1        0.0587
      9 CL        137.6483  140.7234  163.3100 Cl      1  UNL1       -0.0822
     10 C         137.9761  142.9560  164.5976 C.ar    1  UNL1        0.0228
     11 C         138.8708  144.0622  165.0728 C.ar    1  UNL1        0.0587
     12 CL        138.3040  145.1887  165.8851 Cl      1  UNL1       -0.0822
     13 C         140.3323  144.0419  164.7358 C.ar    1  UNL1        0.0160
     14 C         145.5032  141.2904  163.9585 C.3     1  UNL1        0.0615
     15 C         144.8046  140.3072  163.0667 C.3     1  UNL1        0.1656
     16 N         144.2800  139.0214  163.6338 N.pl3   1  UNL1       -0.2201
     17 H         144.8175  138.1992  163.5687 H       1  UNL1        0.2456
     18 C         142.9365  138.9884  164.3000 C.cat   1  UNL1        0.4200
     19 N         142.5099  139.8293  165.4665 N.2     1  UNL1       -0.0679
     20 C         141.0934  139.4694  165.8041 C.2     1  UNL1        0.1887
     21 C         140.1543  139.9725  166.8600 C.2     1  UNL1        0.0395
     22 C         138.7664  139.4122  166.9580 C.2     1  UNL1       -0.0010
     23 C         138.3175  138.3488  166.0001 C.2     1  UNL1       -0.0181
     24 C         139.2566  137.8456  164.9442 C.3     1  UNL1        0.0932
     25 C         140.6445  138.4059  164.8462 C.2     1  UNL1        0.1744
     26 N         141.7836  138.1087  163.9166 N.2     1  UNL1       -0.0718
@<TRIPOS>BOND
     1     2     3    2
     2     3     4   am
     3     4     1    1
     4     1    14    1
     5    14    15    1
     6    15    16    1
     7    16    18    1
     8    18    19    2
     9    19    20    1
    10    20    21    2
    11    21    22    1
    12    22    23    2
    13    23    24    1
    14    24    25    1
    15    25    26    2
    16     3     6    1
    17     6     7   ar
    18     7     8   ar
    19     8     9    1
    20     8    10   ar
    21    10    11   ar
    22    11    12    1
    23    11    13   ar
    24    26    18    1
    25    13     6   ar
    26    25    20    1
    27     4     5    1
    28    16    17    1
@<TRIPOS>MOLECULE
*****
 26 28 0 0 0
SMALL
GASTEIGER

@<TRIPOS>ATOM
      1 C         138.6767  144.9532  162.6282 C.3     1  UNL1        0.0931
      2 O         138.7166  144.9657  165.6280 O.2     1  UNL1       -0.2701
      3 C         139.1722  143.7498  164.8769 C.2     1  UNL1        0.2459
      4 N         139.1523  143.7436  163.3771 N.am    1  UNL1       -0.3008
      5 H         139.4513  142.9455  162.8841 H       1  UNL1        0.1497
      6 C         139.6478  142.5402  165.6257 C.ar    1  UNL1        0.0550
      7 C         140.7943  142.6555  166.5861 C.ar    1  UNL1        0.0160
      8 C         141.2698  141.4459  167.3349 C.ar    1  UNL1        0.0587
      9 CL        142.4162  141.5611  168.2953 Cl      1  UNL1       -0.0822
     10 C         140.5989  140.1210  167.1233 C.ar    1  UNL1        0.0228
     11 C         139.4524  140.0059  166.1630 C.ar    1  UNL1        0.0587
     12 CL        138.7815  138.6810  165.9514 Cl      1  UNL1       -0.0822
     13 C         138.9769  141.2154  165.4141 C.ar    1  UNL1        0.0160
     14 C         139.6656  145.8425  161.9345 C.3     1  UNL1        0.0615
     15 C         140.5528  145.2841  160.8616 C.3     1  UNL1        0.1656
     16 N         142.0388  145.2456  161.0618 N.pl3   1  UNL1       -0.2201
     17 H         142.6033  145.9657  160.6985 H       1  UNL1        0.2456
     18 C         142.6648  144.1099  161.8156 C.cat   1  UNL1        0.4200
     19 N         141.9308  143.0450  162.5753 N.2     1  UNL1       -0.0679
     20 C         142.9471  142.1166  163.1713 C.2     1  UNL1        0.1887
     21 C         142.8081  140.8875  164.0198 C.2     1  UNL1        0.0395
     22 C         144.0314  140.1494  164.4768 C.2     1  UNL1       -0.0010
     23 C         145.3936  140.6405  164.0853 C.2     1  UNL1       -0.0181
     24 C         145.5326  141.8696  163.2368 C.3     1  UNL1        0.0932
     25 C         144.3093  142.6076  162.7798 C.2     1  UNL1        0.1744
     26 N         144.1349  143.8395  161.9419 N.2     1  UNL1       -0.0718
@<TRIPOS>BOND
     1     2     3    2
     2     3     4   am
     3     4     1    1
     4     1    14    1
     5    14    15    1
     6    15    16    1
     7    16    18    1
     8    18    19    2
     9    19    20    1
    10    20    21    2
    11    21    22    1
    12    22    23    2
    13    23    24    1
    14    24    25    1
    15    25    26    2
    16     3     6    1
    17     6     7   ar
    18     7     8   ar
    19     8     9    1
    20     8    10   ar
    21    10    11   ar
    22    11    12    1
    23    11    13   ar
    24    26    18    1
    25    13     6   ar
    26    25    20    1
    27     4     5    1
    28    16    17    1
@<TRIPOS>MOLECULE
*****
 26 28 0 0 0
SMALL
GASTEIGER

@<TRIPOS>ATOM
      1 C         140.6867  138.8213  160.8705 C.3     1  UNL1        0.0931
      2 O         141.4733  141.3537  159.4675 O.2     1  UNL1       -0.2701
      3 C         141.2660  141.3526  160.9531 C.2     1  UNL1        0.2459
      4 N         140.8727  140.0865  161.6546 N.am    1  UNL1       -0.3008
      5 H         140.7367  140.0858  162.6297 H       1  UNL1        0.1497
      6 C         141.4520  142.6178  161.7372 C.ar    1  UNL1        0.0550
      7 C         140.5708  143.8020  161.4702 C.ar    1  UNL1        0.0160
      8 C         140.7568  145.0672  162.2543 C.ar    1  UNL1        0.0587
      9 CL        139.8758  146.2514  161.9873 Cl      1  UNL1       -0.0822
     10 C         141.8239  145.1481  163.3054 C.ar    1  UNL1        0.0228
     11 C         142.7050  143.9639  163.5724 C.ar    1  UNL1        0.0587
     12 CL        143.7721  144.0447  164.6235 Cl      1  UNL1       -0.0822
     13 C         142.5190  142.6987  162.7883 C.ar    1  UNL1        0.0160
     14 C         139.3049  138.3114  160.5862 C.3     1  UNL1        0.0615
     15 C         138.2744  138.2903  161.6759 C.3     1  UNL1        0.1656
     16 N         137.3625  139.4655  161.8687 N.pl3   1  UNL1       -0.2201
     17 H         136.4881  139.4894  161.4168 H       1  UNL1        0.2456
     18 C         137.7826  140.6042  162.7500 C.cat   1  UNL1        0.4200
     19 N         138.8766  140.5682  163.7756 N.2     1  UNL1       -0.0679
     20 C         138.9527  141.9206  164.4200 C.2     1  UNL1        0.1887
     21 C         139.8400  142.4708  165.4969 C.2     1  UNL1        0.0395
     22 C         139.6804  143.8929  165.9464 C.2     1  UNL1       -0.0010
     23 C         138.6334  144.7648  165.3191 C.2     1  UNL1       -0.0181
     24 C         137.7460  144.2146  164.2421 C.3     1  UNL1        0.0932
     25 C         137.9057  142.7925  163.7926 C.2     1  UNL1        0.1744
     26 N         137.1825  141.9789  162.7605 N.2     1  UNL1       -0.0718
@<TRIPOS>BOND
     1     2     3    2
     2     3     4   am
     3     4     1    1
     4     1    14    1
     5    14    15    1
     6    15    16    1
     7    16    18    1
     8    18    19    2
     9    19    20    1
    10    20    21    2
    11    21    22    1
    12    22    23    2
    13    23    24    1
    14    24    25    1
    15    25    26    2
    16     3     6    1
    17     6     7   ar
    18     7     8   ar
    19     8     9    1
    20     8    10   ar
    21    10    11   ar
    22    11    12    1
    23    11    13   ar
    24    26    18    1
    25    13     6   ar
    26    25    20    1
    27     4     5    1
    28    16    17    1
@<TRIPOS>MOLECULE
*****
 26 28 0 0 0
SMALL
GASTEIGER

@<TRIPOS>ATOM
      1 C         143.9215  139.6130  164.7030 C.3     1  UNL1        0.0931
      2 O         142.9300  141.9518  166.2990 O.2     1  UNL1       -0.2701
      3 C         142.0602  141.3448  165.2382 C.2     1  UNL1        0.2459
      4 N         142.5560  140.1755  164.4403 N.am    1  UNL1       -0.3008
      5 H         141.9852  139.7771  163.7441 H       1  UNL1        0.1497
      6 C         140.6947  141.9072  164.9755 C.ar    1  UNL1        0.0550
      7 C         140.3177  143.2501  165.5274 C.ar    1  UNL1        0.0160
      8 C         138.9522  143.8126  165.2646 C.ar    1  UNL1        0.0587
      9 CL        138.5752  145.1554  165.8165 Cl      1  UNL1       -0.0822
     10 C         137.9637  143.0321  164.4500 C.ar    1  UNL1        0.0228
     11 C         138.3406  141.6892  163.8981 C.ar    1  UNL1        0.0587
     12 CL        137.3521  140.9087  163.0834 Cl      1  UNL1       -0.0822
     13 C         139.7062  141.1268  164.1608 C.ar    1  UNL1        0.0160
     14 C         145.0594  139.9462  163.7841 C.3     1  UNL1        0.0615
     15 C         145.7439  141.2767  163.8898 C.3     1  UNL1        0.1656
     16 N         145.5507  142.3068  162.8166 N.pl3   1  UNL1       -0.2201
     17 H         146.3176  142.6032  162.2751 H       1  UNL1        0.2456
     18 C         144.1892  142.8852  162.5685 C.cat   1  UNL1        0.4200
     19 N         143.0889  142.2423  161.7774 N.2     1  UNL1       -0.0679
     20 C         141.9085  143.1678  161.7879 C.2     1  UNL1        0.1887
     21 C         140.5440  143.0612  161.1742 C.2     1  UNL1        0.0395
     22 C         139.5503  144.1696  161.3582 C.2     1  UNL1       -0.0010
     23 C         139.9211  145.3846  162.1558 C.2     1  UNL1       -0.0181
     24 C         141.2856  145.4912  162.7695 C.3     1  UNL1        0.0932
     25 C         142.2793  144.3828  162.5856 C.2     1  UNL1        0.1744
     26 N         143.6888  144.2081  163.0680 N.2     1  UNL1       -0.0718
@<TRIPOS>BOND
     1     2     3    2
     2     3     4   am
     3     4     1    1
     4     1    14    1
     5    14    15    1
     6    15    16    1
     7    16    18    1
     8    18    19    2
     9    19    20    1
    10    20    21    2
    11    21    22    1
    12    22    23    2
    13    23    24    1
    14    24    25    1
    15    25    26    2
    16     3     6    1
    17     6     7   ar
    18     7     8   ar
    19     8     9    1
    20     8    10   ar
    21    10    11   ar
    22    11    12    1
    23    11    13   ar
    24    26    18    1
    25    13     6   ar
    26    25    20    1
    27     4     5    1
    28    16    17    1
@<TRIPOS>MOLECULE
*****
 26 28 0 0 0
SMALL
GASTEIGER

@<TRIPOS>ATOM
      1 C         144.5826  142.9974  163.0581 C.3     1  UNL1        0.0931
      2 O         142.2586  144.2483  161.6317 O.2     1  UNL1       -0.2701
      3 C         142.0350  143.4828  162.9022 C.2     1  UNL1        0.2459
      4 N         143.1970  142.8574  163.6153 N.am    1  UNL1       -0.3008
      5 H         143.0502  142.3549  164.4492 H       1  UNL1        0.1497
      6 C         140.6494  143.3427  163.4594 C.ar    1  UNL1        0.0550
      7 C         140.1317  144.3492  164.4438 C.ar    1  UNL1        0.0160
      8 C         138.7461  144.2092  165.0010 C.ar    1  UNL1        0.0587
      9 CL        138.2283  145.2156  165.9853 Cl      1  UNL1       -0.0822
     10 C         137.8783  143.0626  164.5739 C.ar    1  UNL1        0.0228
     11 C         138.3961  142.0562  163.5896 C.ar    1  UNL1        0.0587
     12 CL        137.5282  140.9096  163.1624 Cl      1  UNL1       -0.0822
     13 C         139.7816  142.1962  163.0323 C.ar    1  UNL1        0.0160
     14 C         145.4468  141.7839  162.8831 C.3     1  UNL1        0.0615
     15 C         145.4775  140.7255  163.9456 C.3     1  UNL1        0.1656
     16 N         144.7283  139.4413  163.7468 N.pl3   1  UNL1       -0.2201
     17 H         145.1586  138.6871  163.2828 H       1  UNL1        0.2456
     18 C         143.3236  139.3061  164.2551 C.cat   1  UNL1        0.4200
     19 N         142.3627  138.2073  163.9095 N.2     1  UNL1       -0.0679
     20 C         141.0783  138.4681  164.6391 C.2     1  UNL1        0.1887
     21 C         139.7783  137.7211  164.6809 C.2     1  UNL1        0.0395
     22 C         138.6453  138.2340  165.5194 C.2     1  UNL1       -0.0010
     23 C         138.8123  139.4940  166.3160 C.2     1  UNL1       -0.0181
     24 C         140.1123  140.2410  166.2741 C.3     1  UNL1        0.0932
     25 C         141.2453  139.7281  165.4356 C.2     1  UNL1        0.1744
     26 N         142.6329  140.2460  165.1984 N.2     1  UNL1       -0.0718
@<TRIPOS>BOND
     1     2     3    2
     2     3     4   am
     3     4     1    1
     4     1    14    1
     5    14    15    1
     6    15    16    1
     7    16    18    1
     8    18    19    2
     9    19    20    1
    10    20    21    2
    11    21    22    1
    12    22    23    2
    13    23    24    1
    14    24    25    1
    15    25    26    2
    16     3     6    1
    17     6     7   ar
    18     7     8   ar
    19     8     9    1
    20     8    10   ar
    21    10    11   ar
    22    11    12    1
    23    11    13   ar
    24    26    18    1
    25    13     6   ar
    26    25    20    1
    27     4     5    1
    28    16    17    1
