@<TRIPOS>MOLECULE
*****
 28 32 0 0 0
SMALL
GASTEIGER

@<TRIPOS>ATOM
      1 C         139.2930  139.1812  165.2210 C.ar    1  UNL1        0.0015
      2 C         138.1641  138.6367  166.0450 C.ar    1  UNL1        0.0031
      3 C         138.0869  138.9482  167.5103 C.ar    1  UNL1        0.0366
      4 C         139.1386  139.8041  168.1516 C.ar    1  UNL1        0.1364
      5 C         140.2676  140.3486  167.3276 C.ar    1  UNL1        0.0355
      6 C         140.3448  140.0371  165.8623 C.ar    1  UNL1        0.0007
      7 C         141.3193  141.2045  167.9688 C.3     1  UNL1        0.1537
      8 C         142.4380  142.0698  168.4684 C.3     1  UNL1        0.2350
      9 O         143.3379  142.3794  167.3089 O.2     1  UNL1       -0.4478
     10 C         142.7752  141.7054  166.0927 C.2     1  UNL1        0.2770
     11 N         143.3579  141.7497  164.7112 N.pl3   1  UNL1       -0.3133
     12 N         141.5277  140.9793  166.5005 N.2     1  UNL1       -0.2204
     13 C         141.2421  141.5160  169.4341 C.3     1  UNL1        0.0666
     14 C         141.8047  142.1899  170.6503 C.3     1  UNL1        0.0061
     15 C         142.5011  142.3245  169.3286 C.3     1  UNL1        0.0061
     16 C         140.1131  140.9715  170.2581 C.3     1  UNL1        0.2074
     17 O         139.0613  140.1155  169.6169 O.3     1  UNL1       -0.4756
     18 H         144.1850  142.2561  164.5418 H       1  UNL1        0.1466
     19 H         142.9132  141.2724  163.9738 H       1  UNL1        0.1466
     20 C         140.7206  138.0252  161.7031 C.ar    1  UNL1        0.1576
     21 C         139.5247  138.2468  160.8252 C.ar    1  UNL1        0.1356
     22 N         138.2516  138.7798  161.4126 N.ar    1  UNL1       -0.2391
     23 C         138.1743  139.0913  162.8779 C.ar    1  UNL1        0.0991
     24 C         139.3702  138.8697  163.7558 C.ar    1  UNL1        0.0222
     25 C         140.6434  138.3367  163.1684 C.ar    1  UNL1        0.0401
     26 O         141.9937  137.4922  161.1157 O.3     1  UNL1       -0.4739
     27 C         144.1392  138.9330  160.8485 C.3     1  UNL1        0.0512
     28 C         143.3172  137.9618  161.6429 C.3     1  UNL1        0.2056
@<TRIPOS>BOND
     1    27    28    1
     2    28    26    1
     3    26    20    1
     4    20    21   ar
     5    21    22   ar
     6    22    23   ar
     7    23    24   ar
     8    24     1    1
     9     1     2   ar
    10     2     3   ar
    11     3     4   ar
    12     4     5   ar
    13     5     6   ar
    14     5     7    1
    15     7     8    1
    16     8     9    1
    17     9    10    1
    18    10    11    1
    19    10    12    2
    20     7    13    1
    21    13    14    1
    22    14    15    1
    23    13    16    1
    24    16    17    1
    25    24    25   ar
    26    25    20   ar
    27     6     1   ar
    28    12     7    1
    29    15    13    1
    30    17     4    1
    31    11    18    1
    32    11    19    1
@<TRIPOS>MOLECULE
*****
 28 32 0 0 0
SMALL
GASTEIGER

@<TRIPOS>ATOM
      1 C         139.0068  140.3995  165.0086 C.ar    1  UNL1        0.0015
      2 C         138.1164  139.5241  165.8397 C.ar    1  UNL1        0.0031
      3 C         138.4397  139.2817  167.2843 C.ar    1  UNL1        0.0366
      4 C         139.6534  139.9146  167.8976 C.ar    1  UNL1        0.1364
      5 C         140.5439  140.7900  167.0665 C.ar    1  UNL1        0.0355
      6 C         140.2205  141.0325  165.6220 C.ar    1  UNL1        0.0007
      7 C         141.7576  141.4229  167.6799 C.3     1  UNL1        0.1537
      8 C         142.9989  142.1199  168.1525 C.3     1  UNL1        0.2350
      9 O         143.5715  142.8828  166.9949 O.2     1  UNL1       -0.4478
     10 C         142.6840  142.6574  165.8067 C.2     1  UNL1        0.2770
     11 N         142.8828  143.2331  164.4360 N.pl3   1  UNL1       -0.3133
     12 N         141.5630  141.7551  166.2301 N.2     1  UNL1       -0.2204
     13 C         142.0809  141.1805  169.1244 C.3     1  UNL1        0.0666
     14 C         142.9684  141.4059  170.3125 C.3     1  UNL1        0.0061
     15 C         143.2958  142.0513  168.9986 C.3     1  UNL1        0.0061
     16 C         141.1906  140.3051  169.9555 C.3     1  UNL1        0.2074
     17 O         139.9768  139.6721  169.3422 O.3     1  UNL1       -0.4756
     18 H         143.6536  143.8182  164.2548 H       1  UNL1        0.1466
     19 H         142.2424  143.0259  163.7174 H       1  UNL1        0.1466
     20 C         138.5464  142.2505  161.5283 C.ar    1  UNL1        0.1576
     21 C         138.0367  141.1270  160.6750 C.ar    1  UNL1        0.1356
     22 N         137.8505  139.7611  161.2662 N.ar    1  UNL1       -0.2391
     23 C         138.1738  139.5186  162.7108 C.ar    1  UNL1        0.0991
     24 C         138.6834  140.6420  163.5641 C.ar    1  UNL1        0.0222
     25 C         138.8697  142.0080  162.9729 C.ar    1  UNL1        0.0401
     26 O         138.7327  143.6164  160.9371 O.3     1  UNL1       -0.4739
     27 C         139.6646  145.7935  162.0057 C.3     1  UNL1        0.0512
     28 C         139.8987  144.4621  161.3556 C.3     1  UNL1        0.2056
@<TRIPOS>BOND
     1    27    28    1
     2    28    26    1
     3    26    20    1
     4    20    21   ar
     5    21    22   ar
     6    22    23   ar
     7    23    24   ar
     8    24     1    1
     9     1     2   ar
    10     2     3   ar
    11     3     4   ar
    12     4     5   ar
    13     5     6   ar
    14     5     7    1
    15     7     8    1
    16     8     9    1
    17     9    10    1
    18    10    11    1
    19    10    12    2
    20     7    13    1
    21    13    14    1
    22    14    15    1
    23    13    16    1
    24    16    17    1
    25    24    25   ar
    26    25    20   ar
    27     6     1   ar
    28    12     7    1
    29    15    13    1
    30    17     4    1
    31    11    18    1
    32    11    19    1
@<TRIPOS>MOLECULE
*****
 28 32 0 0 0
SMALL
GASTEIGER

@<TRIPOS>ATOM
      1 C         141.3134  142.5136  165.4044 C.ar    1  UNL1        0.0015
      2 C         142.6675  143.1514  165.3084 C.ar    1  UNL1        0.0031
      3 C         143.1280  143.7420  164.0087 C.ar    1  UNL1        0.0366
      4 C         142.2342  143.6948  162.8050 C.ar    1  UNL1        0.1364
      5 C         140.8800  143.0569  162.9009 C.ar    1  UNL1        0.0355
      6 C         140.4195  142.4663  164.2006 C.ar    1  UNL1        0.0007
      7 C         139.9862  143.0097  161.6972 C.3     1  UNL1        0.1537
      8 C         138.9878  142.8885  160.5844 C.3     1  UNL1        0.2350
      9 O         137.7772  142.1849  161.1223 O.2     1  UNL1       -0.4478
     10 C         138.0274  141.8712  162.5676 C.2     1  UNL1        0.2770
     11 N         137.0789  141.1708  163.4948 N.pl3   1  UNL1       -0.3133
     12 N         139.3926  142.3809  162.9230 N.2     1  UNL1       -0.2204
     13 C         140.4466  143.6003  160.3976 C.3     1  UNL1        0.0666
     14 C         140.1964  143.9140  158.9523 C.3     1  UNL1        0.0061
     15 C         139.1488  143.2047  159.7580 C.3     1  UNL1        0.0061
     16 C         141.8008  144.2381  160.3016 C.3     1  UNL1        0.2074
     17 O         142.6947  144.2854  161.5053 O.3     1  UNL1       -0.4756
     18 H         136.2001  140.8720  163.1665 H       1  UNL1        0.1466
     19 H         137.3351  141.0097  164.4316 H       1  UNL1        0.1466
     20 C         139.4187  140.1913  168.0058 C.ar    1  UNL1        0.1576
     21 C         139.9320  140.7417  169.3034 C.ar    1  UNL1        0.1356
     22 N         140.9058  141.8826  169.3012 N.ar    1  UNL1       -0.2391
     23 C         141.3662  142.4733  168.0016 C.ar    1  UNL1        0.0991
     24 C         140.8529  141.9229  166.7040 C.ar    1  UNL1        0.0222
     25 C         139.8791  140.7819  166.7061 C.ar    1  UNL1        0.0401
     26 O         138.4450  139.0504  168.0080 O.3     1  UNL1       -0.4739
     27 C         138.3444  137.5495  165.8897 C.3     1  UNL1        0.0512
     28 C         137.7633  138.6437  166.7352 C.3     1  UNL1        0.2056
@<TRIPOS>BOND
     1    27    28    1
     2    28    26    1
     3    26    20    1
     4    20    21   ar
     5    21    22   ar
     6    22    23   ar
     7    23    24   ar
     8    24     1    1
     9     1     2   ar
    10     2     3   ar
    11     3     4   ar
    12     4     5   ar
    13     5     6   ar
    14     5     7    1
    15     7     8    1
    16     8     9    1
    17     9    10    1
    18    10    11    1
    19    10    12    2
    20     7    13    1
    21    13    14    1
    22    14    15    1
    23    13    16    1
    24    16    17    1
    25    24    25   ar
    26    25    20   ar
    27     6     1   ar
    28    12     7    1
    29    15    13    1
    30    17     4    1
    31    11    18    1
    32    11    19    1
@<TRIPOS>MOLECULE
*****
 28 32 0 0 0
SMALL
GASTEIGER

@<TRIPOS>ATOM
      1 C         141.6330  139.1949  164.8531 C.ar    1  UNL1        0.0015
      2 C         142.7057  138.3790  164.1946 C.ar    1  UNL1        0.0031
      3 C         142.6379  138.0991  162.7225 C.ar    1  UNL1        0.0366
      4 C         141.4974  138.6350  161.9089 C.ar    1  UNL1        0.1364
      5 C         140.4246  139.4509  162.5674 C.ar    1  UNL1        0.0355
      6 C         140.4924  139.7309  164.0395 C.ar    1  UNL1        0.0007
      7 C         139.2841  139.9869  161.7538 C.3     1  UNL1        0.1537
      8 C         138.0892  140.5860  161.0732 C.3     1  UNL1        0.2350
      9 O         137.2845  141.3162  162.1072 O.2     1  UNL1       -0.4478
     10 C         137.9821  141.1684  163.4269 C.2     1  UNL1        0.2770
     11 N         137.5243  141.7416  164.7353 N.pl3   1  UNL1       -0.3133
     12 N         139.2179  140.3468  163.2085 N.2     1  UNL1       -0.2204
     13 C         139.2163  139.7069  160.2817 C.3     1  UNL1        0.0666
     14 C         138.5187  139.8548  158.9621 C.3     1  UNL1        0.0061
     15 C         137.9385  140.4874  160.1921 C.3     1  UNL1        0.0061
     16 C         140.2890  138.8911  159.6232 C.3     1  UNL1        0.2074
     17 O         141.4296  138.3551  160.4368 O.3     1  UNL1       -0.4756
     18 H         136.6949  142.2702  164.7779 H       1  UNL1        0.1466
     19 H         138.0533  141.5891  165.5515 H       1  UNL1        0.1466
     20 C         140.6740  140.5346  168.4636 C.ar    1  UNL1        0.1576
     21 C         141.8363  140.0346  169.2694 C.ar    1  UNL1        0.1356
     22 N         142.9308  139.2548  168.6030 N.ar    1  UNL1       -0.2391
     23 C         142.8630  138.9749  167.1309 C.ar    1  UNL1        0.0991
     24 C         141.7007  139.4748  166.3252 C.ar    1  UNL1        0.0222
     25 C         140.6062  140.2546  166.9915 C.ar    1  UNL1        0.0401
     26 O         139.5796  141.3144  169.1299 O.3     1  UNL1       -0.4739
     27 C         140.4287  143.6853  169.7683 C.3     1  UNL1        0.0512
     28 C         139.9161  142.3358  170.1756 C.3     1  UNL1        0.2056
@<TRIPOS>BOND
     1    27    28    1
     2    28    26    1
     3    26    20    1
     4    20    21   ar
     5    21    22   ar
     6    22    23   ar
     7    23    24   ar
     8    24     1    1
     9     1     2   ar
    10     2     3   ar
    11     3     4   ar
    12     4     5   ar
    13     5     6   ar
    14     5     7    1
    15     7     8    1
    16     8     9    1
    17     9    10    1
    18    10    11    1
    19    10    12    2
    20     7    13    1
    21    13    14    1
    22    14    15    1
    23    13    16    1
    24    16    17    1
    25    24    25   ar
    26    25    20   ar
    27     6     1   ar
    28    12     7    1
    29    15    13    1
    30    17     4    1
    31    11    18    1
    32    11    19    1
@<TRIPOS>MOLECULE
*****
 28 32 0 0 0
SMALL
GASTEIGER

@<TRIPOS>ATOM
      1 C         142.1470  140.9188  164.5737 C.ar    1  UNL1        0.0015
      2 C         143.3428  141.8119  164.7229 C.ar    1  UNL1        0.0031
      3 C         143.6657  142.4163  166.0572 C.ar    1  UNL1        0.0366
      4 C         142.7927  142.1277  167.2423 C.ar    1  UNL1        0.1364
      5 C         141.5968  141.2346  167.0932 C.ar    1  UNL1        0.0355
      6 C         141.2739  140.6301  165.7588 C.ar    1  UNL1        0.0007
      7 C         140.7238  140.9459  168.2783 C.3     1  UNL1        0.1537
      8 C         139.7639  140.5685  169.3674 C.3     1  UNL1        0.2350
      9 O         138.7248  139.6627  168.7760 O.2     1  UNL1       -0.4478
     10 C         139.0424  139.4804  167.3213 C.2     1  UNL1        0.2770
     11 N         138.2616  138.6507  166.3457 N.pl3   1  UNL1       -0.3133
     12 N         140.2778  140.2735  167.0138 N.2     1  UNL1       -0.2204
     13 C         141.0467  141.5503  169.6126 C.3     1  UNL1        0.0666
     14 C         140.7290  141.7326  171.0672 C.3     1  UNL1        0.0061
     15 C         139.8522  140.8681  170.2107 C.3     1  UNL1        0.0061
     16 C         142.2425  142.4434  169.7618 C.3     1  UNL1        0.2074
     17 O         143.1156  142.7321  168.5766 O.3     1  UNL1       -0.4756
     18 H         137.4598  138.1639  166.6445 H       1  UNL1        0.1466
     19 H         138.5509  138.5930  165.4064 H       1  UNL1        0.1466
     20 C         140.3272  138.7869  161.7641 C.ar    1  UNL1        0.1576
     21 C         141.1784  139.1055  160.5707 C.ar    1  UNL1        0.1356
     22 N         142.3523  140.0285  160.7117 N.ar    1  UNL1       -0.2391
     23 C         142.6752  140.6329  162.0460 C.ar    1  UNL1        0.0991
     24 C         141.8241  140.3144  163.2394 C.ar    1  UNL1        0.0222
     25 C         140.6501  139.3914  163.0984 C.ar    1  UNL1        0.0401
     26 O         139.1532  137.8640  161.6231 O.3     1  UNL1       -0.4739
     27 C         137.4986  139.7648  160.9914 C.3     1  UNL1        0.0512
     28 C         137.7603  138.4201  161.6023 C.3     1  UNL1        0.2056
@<TRIPOS>BOND
     1    27    28    1
     2    28    26    1
     3    26    20    1
     4    20    21   ar
     5    21    22   ar
     6    22    23   ar
     7    23    24   ar
     8    24     1    1
     9     1     2   ar
    10     2     3   ar
    11     3     4   ar
    12     4     5   ar
    13     5     6   ar
    14     5     7    1
    15     7     8    1
    16     8     9    1
    17     9    10    1
    18    10    11    1
    19    10    12    2
    20     7    13    1
    21    13    14    1
    22    14    15    1
    23    13    16    1
    24    16    17    1
    25    24    25   ar
    26    25    20   ar
    27     6     1   ar
    28    12     7    1
    29    15    13    1
    30    17     4    1
    31    11    18    1
    32    11    19    1
@<TRIPOS>MOLECULE
*****
 28 32 0 0 0
SMALL
GASTEIGER

@<TRIPOS>ATOM
      1 C         139.7903  139.1575  165.0171 C.ar    1  UNL1        0.0015
      2 C         138.5366  138.5019  165.5156 C.ar    1  UNL1        0.0031
      3 C         138.0864  138.7217  166.9294 C.ar    1  UNL1        0.0366
      4 C         138.8898  139.5972  167.8448 C.ar    1  UNL1        0.1364
      5 C         140.1436  140.2529  167.3464 C.ar    1  UNL1        0.0355
      6 C         140.5938  140.0330  165.9325 C.ar    1  UNL1        0.0007
      7 C         140.9470  141.1283  168.2618 C.3     1  UNL1        0.1537
      8 C         141.8489  142.0253  169.0568 C.3     1  UNL1        0.2350
      9 O         142.9782  142.4534  168.1672 O.2     1  UNL1       -0.4478
     10 C         142.7742  141.8210  166.8223 C.2     1  UNL1        0.2770
     11 N         143.6686  141.9797  165.6287 N.pl3   1  UNL1       -0.3133
     12 N         141.5189  141.0021  166.8808 N.2     1  UNL1       -0.2204
     13 C         140.4968  141.3482  169.6757 C.3     1  UNL1        0.0666
     14 C         140.7007  141.9805  171.0204 C.3     1  UNL1        0.0061
     15 C         141.6845  142.2321  169.9164 C.3     1  UNL1        0.0061
     16 C         139.2431  140.6925  170.1741 C.3     1  UNL1        0.2074
     17 O         138.4396  139.8170  169.2587 O.3     1  UNL1       -0.4756
     18 H         144.4747  142.5417  165.6888 H       1  UNL1        0.1466
     19 H         143.4495  141.5220  164.7851 H       1  UNL1        0.1466
     20 C         140.6478  139.8482  161.2043 C.ar    1  UNL1        0.1576
     21 C         141.1409  138.4980  160.7756 C.ar    1  UNL1        0.1356
     22 N         141.1838  137.3677  161.7607 N.ar    1  UNL1       -0.2391
     23 C         140.7336  137.5875  163.1745 C.ar    1  UNL1        0.0991
     24 C         140.2405  138.9377  163.6033 C.ar    1  UNL1        0.0222
     25 C         140.1976  140.0681  162.6181 C.ar    1  UNL1        0.0401
     26 O         140.6049  140.9785  160.2192 O.3     1  UNL1       -0.4739
     27 C         138.5561  142.5028  159.7406 C.3     1  UNL1        0.0512
     28 C         139.8014  142.2082  160.5231 C.3     1  UNL1        0.2056
@<TRIPOS>BOND
     1    27    28    1
     2    28    26    1
     3    26    20    1
     4    20    21   ar
     5    21    22   ar
     6    22    23   ar
     7    23    24   ar
     8    24     1    1
     9     1     2   ar
    10     2     3   ar
    11     3     4   ar
    12     4     5   ar
    13     5     6   ar
    14     5     7    1
    15     7     8    1
    16     8     9    1
    17     9    10    1
    18    10    11    1
    19    10    12    2
    20     7    13    1
    21    13    14    1
    22    14    15    1
    23    13    16    1
    24    16    17    1
    25    24    25   ar
    26    25    20   ar
    27     6     1   ar
    28    12     7    1
    29    15    13    1
    30    17     4    1
    31    11    18    1
    32    11    19    1
@<TRIPOS>MOLECULE
*****
 28 32 0 0 0
SMALL
GASTEIGER

@<TRIPOS>ATOM
      1 C         140.5765  143.0184  165.9257 C.ar    1  UNL1        0.0015
      2 C         139.4357  143.9751  166.1082 C.ar    1  UNL1        0.0031
      3 C         139.0030  144.8521  164.9709 C.ar    1  UNL1        0.0366
      4 C         139.7111  144.7725  163.6510 C.ar    1  UNL1        0.1364
      5 C         140.8520  143.8158  163.4683 C.ar    1  UNL1        0.0355
      6 C         141.2847  142.9388  164.6057 C.ar    1  UNL1        0.0007
      7 C         141.5601  143.7361  162.1484 C.3     1  UNL1        0.1537
      8 C         142.3592  143.5463  160.8934 C.3     1  UNL1        0.2350
      9 O         143.3951  142.4942  161.1581 O.2     1  UNL1       -0.4478
     10 C         143.2361  142.0338  162.5769 C.2     1  UNL1        0.2770
     11 N         144.0656  140.9892  163.2631 N.pl3   1  UNL1       -0.3133
     12 N         142.1020  142.8014  163.1889 N.2     1  UNL1       -0.2204
     13 C         141.1273  144.6132  161.0111 C.3     1  UNL1        0.0666
     14 C         141.2864  145.0735  159.5924 C.3     1  UNL1        0.0061
     15 C         142.1948  144.0148  160.1436 C.3     1  UNL1        0.0061
     16 C         139.9866  145.5698  161.1936 C.3     1  UNL1        0.2074
     17 O         139.2784  145.6495  162.5136 O.3     1  UNL1       -0.4756
     18 H         144.7920  140.5385  162.7749 H       1  UNL1        0.1466
     19 H         143.8835  140.7544  164.2017 H       1  UNL1        0.1466
     20 C         142.3082  140.0682  167.9377 C.ar    1  UNL1        0.1576
     21 C         141.8747  140.3874  169.3378 C.ar    1  UNL1        0.1356
     22 N         141.0085  141.5835  169.6005 N.ar    1  UNL1       -0.2391
     23 C         140.5758  142.4605  168.4631 C.ar    1  UNL1        0.0991
     24 C         141.0092  142.1414  167.0631 C.ar    1  UNL1        0.0222
     25 C         141.8754  140.9453  166.8003 C.ar    1  UNL1        0.0401
     26 O         143.1743  138.8721  167.6750 O.3     1  UNL1       -0.4739
     27 C         142.5437  137.9972  165.3114 C.3     1  UNL1        0.0512
     28 C         143.5691  138.5261  166.2698 C.3     1  UNL1        0.2056
@<TRIPOS>BOND
     1    27    28    1
     2    28    26    1
     3    26    20    1
     4    20    21   ar
     5    21    22   ar
     6    22    23   ar
     7    23    24   ar
     8    24     1    1
     9     1     2   ar
    10     2     3   ar
    11     3     4   ar
    12     4     5   ar
    13     5     6   ar
    14     5     7    1
    15     7     8    1
    16     8     9    1
    17     9    10    1
    18    10    11    1
    19    10    12    2
    20     7    13    1
    21    13    14    1
    22    14    15    1
    23    13    16    1
    24    16    17    1
    25    24    25   ar
    26    25    20   ar
    27     6     1   ar
    28    12     7    1
    29    15    13    1
    30    17     4    1
    31    11    18    1
    32    11    19    1
@<TRIPOS>MOLECULE
*****
 28 32 0 0 0
SMALL
GASTEIGER

@<TRIPOS>ATOM
      1 C         142.7714  141.9250  165.4797 C.ar    1  UNL1        0.0015
      2 C         144.0834  142.5228  165.0660 C.ar    1  UNL1        0.0031
      3 C         144.2000  143.2410  163.7544 C.ar    1  UNL1        0.0366
      4 C         143.0046  143.3616  162.8564 C.ar    1  UNL1        0.1364
      5 C         141.6925  142.7638  163.2701 C.ar    1  UNL1        0.0355
      6 C         141.5759  142.0456  164.5818 C.ar    1  UNL1        0.0007
      7 C         140.4970  142.8844  162.3721 C.3     1  UNL1        0.1537
      8 C         139.2219  142.9249  161.5832 C.3     1  UNL1        0.2350
      9 O         138.1665  142.2067  162.3709 O.2     1  UNL1       -0.4478
     10 C         138.7894  141.7224  163.6467 C.2     1  UNL1        0.2770
     11 N         138.0940  140.9542  164.7312 N.pl3   1  UNL1       -0.3133
     12 N         140.2297  142.1412  163.6474 N.2     1  UNL1       -0.2204
     13 C         140.6137  143.6027  161.0605 C.3     1  UNL1        0.0666
     14 C         139.9908  144.0870  159.7848 C.3     1  UNL1        0.0061
     15 C         139.1659  143.3272  160.7809 C.3     1  UNL1        0.0061
     16 C         141.9257  144.2004  160.6468 C.3     1  UNL1        0.2074
     17 O         143.1212  144.0799  161.5447 O.3     1  UNL1       -0.4756
     18 H         137.1410  140.7250  164.6387 H       1  UNL1        0.1466
     19 H         138.5906  140.6790  165.5355 H       1  UNL1        0.1466
     20 C         142.0403  141.2175  169.3158 C.ar    1  UNL1        0.1576
     21 C         142.4215  139.7701  169.4147 C.ar    1  UNL1        0.1356
     22 N         142.9193  139.0411  168.2020 N.ar    1  UNL1       -0.2391
     23 C         143.0360  139.7594  166.8904 C.ar    1  UNL1        0.0991
     24 C         142.6548  141.2067  166.7914 C.ar    1  UNL1        0.0222
     25 C         142.1569  141.9358  168.0041 C.ar    1  UNL1        0.0401
     26 O         141.5425  141.9466  170.5284 O.3     1  UNL1       -0.4739
     27 C         140.3112  144.1795  170.0307 C.3     1  UNL1        0.0512
     28 C         140.2727  142.7419  170.4568 C.3     1  UNL1        0.2056
@<TRIPOS>BOND
     1    27    28    1
     2    28    26    1
     3    26    20    1
     4    20    21   ar
     5    21    22   ar
     6    22    23   ar
     7    23    24   ar
     8    24     1    1
     9     1     2   ar
    10     2     3   ar
    11     3     4   ar
    12     4     5   ar
    13     5     6   ar
    14     5     7    1
    15     7     8    1
    16     8     9    1
    17     9    10    1
    18    10    11    1
    19    10    12    2
    20     7    13    1
    21    13    14    1
    22    14    15    1
    23    13    16    1
    24    16    17    1
    25    24    25   ar
    26    25    20   ar
    27     6     1   ar
    28    12     7    1
    29    15    13    1
    30    17     4    1
    31    11    18    1
    32    11    19    1
@<TRIPOS>MOLECULE
*****
 28 32 0 0 0
SMALL
GASTEIGER

@<TRIPOS>ATOM
      1 C         140.0427  140.2530  164.8879 C.ar    1  UNL1        0.0015
      2 C         138.8430  139.4614  165.3169 C.ar    1  UNL1        0.0031
      3 C         138.5426  139.2862  166.7760 C.ar    1  UNL1        0.0366
      4 C         139.4420  139.9025  167.8062 C.ar    1  UNL1        0.1364
      5 C         140.6418  140.6941  167.3772 C.ar    1  UNL1        0.0355
      6 C         140.9422  140.8694  165.9181 C.ar    1  UNL1        0.0007
      7 C         141.5411  141.3104  168.4074 C.3     1  UNL1        0.1537
      8 C         142.5261  141.9817  169.3180 C.3     1  UNL1        0.2350
      9 O         143.5602  142.6559  168.4659 O.2     1  UNL1       -0.4478
     10 C         143.2144  142.4012  167.0287 C.2     1  UNL1        0.2770
     11 N         143.9818  142.8919  165.8369 N.pl3   1  UNL1       -0.3133
     12 N         141.9665  141.5697  166.9926 N.2     1  UNL1       -0.2204
     13 C         141.2407  141.1352  169.8665 C.3     1  UNL1        0.0666
     14 C         141.5866  141.3898  171.3037 C.3     1  UNL1        0.0061
     15 C         142.4527  141.9480  170.2137 C.3     1  UNL1        0.0061
     16 C         140.0410  140.3436  170.2955 C.3     1  UNL1        0.2074
     17 O         139.1416  139.7272  169.2653 O.3     1  UNL1       -0.4756
     18 H         144.7934  143.4345  165.9634 H       1  UNL1        0.1466
     19 H         143.6737  142.6714  164.9282 H       1  UNL1        0.1466
     20 C         142.0627  140.7591  161.5095 C.ar    1  UNL1        0.1576
     21 C         140.9439  140.7788  160.5105 C.ar    1  UNL1        0.1356
     22 N         139.5248  140.6232  160.9707 N.ar    1  UNL1       -0.2391
     23 C         139.2244  140.4479  162.4298 C.ar    1  UNL1        0.0991
     24 C         140.3431  140.4282  163.4288 C.ar    1  UNL1        0.0222
     25 C         141.7624  140.5839  162.9686 C.ar    1  UNL1        0.0401
     26 O         143.4819  140.9147  161.0493 O.3     1  UNL1       -0.4739
     27 C         144.4044  143.1217  162.0632 C.3     1  UNL1        0.0512
     28 C         144.4765  141.6309  161.9141 C.3     1  UNL1        0.2056
@<TRIPOS>BOND
     1    27    28    1
     2    28    26    1
     3    26    20    1
     4    20    21   ar
     5    21    22   ar
     6    22    23   ar
     7    23    24   ar
     8    24     1    1
     9     1     2   ar
    10     2     3   ar
    11     3     4   ar
    12     4     5   ar
    13     5     6   ar
    14     5     7    1
    15     7     8    1
    16     8     9    1
    17     9    10    1
    18    10    11    1
    19    10    12    2
    20     7    13    1
    21    13    14    1
    22    14    15    1
    23    13    16    1
    24    16    17    1
    25    24    25   ar
    26    25    20   ar
    27     6     1   ar
    28    12     7    1
    29    15    13    1
    30    17     4    1
    31    11    18    1
    32    11    19    1
