@<TRIPOS>MOLECULE
*****
 35 39 0 0 0
SMALL
GASTEIGER

@<TRIPOS>ATOM
      1 C         142.4529  141.3948  165.9198 C.3     1  UNL1        0.0279
      2 C         141.6036  140.8760  164.7975 C.3     1  UNL1        0.0260
      3 C         141.9856  141.1597  163.3749 C.3     1  UNL1        0.0940
      4 N         143.2167  141.9622  163.0746 N.am    1  UNL1       -0.2761
      5 C         143.5987  142.2459  161.6521 C.2     1  UNL1        0.2490
      6 O         144.8298  143.0484  161.3519 O.2     1  UNL1       -0.2699
      7 C         144.0660  142.4810  164.1970 C.3     1  UNL1        0.0940
      8 C         143.6840  142.1974  165.6195 C.3     1  UNL1        0.0260
      9 C         140.8654  141.8189  169.5323 C.ar    1  UNL1       -0.0068
     10 C         141.3071  140.5439  170.1874 C.ar    1  UNL1       -0.0006
     11 C         142.1307  139.5526  169.4201 C.ar    1  UNL1        0.0290
     12 C         142.5127  139.8362  167.9975 C.ar    1  UNL1        0.1361
     13 F         143.3363  138.8448  167.2302 F       1  UNL1       -0.2045
     14 C         142.0709  141.1112  167.3424 C.ar    1  UNL1        0.0048
     15 C         141.2473  142.1025  168.1097 C.ar    1  UNL1       -0.0050
     16 N         140.2672  144.2807  170.1079 N.3     1  UNL1       -0.3175
     17 C         140.0418  142.8103  170.2996 C.3     1  UNL1        0.0922
     18 H         139.6251  144.8036  170.7035 H       1  UNL1        0.1192
     19 H         140.1014  144.5257  169.1318 H       1  UNL1        0.1192
     20 C         142.7494  141.7270  160.5298 C.ar    1  UNL1        0.0537
     21 C         141.4403  142.3871  160.2129 C.ar    1  UNL1        0.0045
     22 C         140.5910  141.8681  159.0906 C.ar    1  UNL1        0.0003
     23 C         141.0509  140.6893  158.2852 C.ar    1  UNL1        0.0047
     24 C         142.3601  140.0292  158.6021 C.ar    1  UNL1        0.0562
     25 C         143.2094  140.5481  159.7244 C.ar    1  UNL1        0.0092
     26 C         142.8200  138.8504  157.7968 C.ar    1  UNL1        0.2600
     27 N         142.2951  137.4494  157.9055 N.ar    1  UNL1       -0.1865
     28 C         143.0363  136.5986  156.9171 C.ar    1  UNL1        0.2096
     29 N         144.0194  137.4738  156.1976 N.ar    1  UNL1       -0.0551
     30 O         143.8858  138.8654  156.7412 O.2     1  UNL1       -0.3324
     31 C         142.8306  135.1305  156.6885 C.ar    1  UNL1        0.0685
     32 C         141.8960  134.5164  155.6889 C.ar    1  UNL1        0.0102
     33 C         142.0111  133.0251  155.8019 C.ar    1  UNL1        0.0076
     34 C         143.0170  132.7176  156.8713 C.ar    1  UNL1        0.0355
     35 S         143.5235  134.0188  157.4192 S.2     1  UNL1       -0.0832
@<TRIPOS>BOND
     1    16    17    1
     2    17     9    1
     3     9    10   ar
     4    10    11   ar
     5    11    12   ar
     6    12    13    1
     7    12    14   ar
     8    14     1    1
     9     1     2    1
    10     2     3    1
    11     3     4    1
    12     4     5   am
    13     5     6    2
    14     5    20    1
    15    20    21   ar
    16    21    22   ar
    17    22    23   ar
    18    23    24   ar
    19    24    26    1
    20    26    27   ar
    21    27    28   ar
    22    28    31    1
    23    31    32   ar
    24    32    33   ar
    25    33    34   ar
    26    34    35   ar
    27    28    29   ar
    28    29    30   ar
    29    24    25   ar
    30     4     7    1
    31     7     8    1
    32    14    15   ar
    33    15     9   ar
    34     8     1    1
    35    25    20   ar
    36    30    26   ar
    37    35    31   ar
    38    16    18    1
    39    16    19    1
@<TRIPOS>MOLECULE
*****
 35 39 0 0 0
SMALL
GASTEIGER

@<TRIPOS>ATOM
      1 C         139.5909  141.0502  165.2040 C.3     1  UNL1        0.0279
      2 C         140.8532  141.1129  164.3962 C.3     1  UNL1        0.0260
      3 C         140.7882  141.0664  162.8983 C.3     1  UNL1        0.0940
      4 N         139.4608  140.9570  162.2082 N.am    1  UNL1       -0.2761
      5 C         139.3957  140.9105  160.7104 C.2     1  UNL1        0.2490
      6 O         138.0683  140.8011  160.0204 O.2     1  UNL1       -0.2699
      7 C         138.1984  140.8943  163.0161 C.3     1  UNL1        0.0940
      8 C         138.2635  140.9409  164.5140 C.3     1  UNL1        0.0260
      9 C         140.3572  142.3153  168.8867 C.ar    1  UNL1       -0.0068
     10 C         139.7860  141.1900  169.6976 C.ar    1  UNL1       -0.0006
     11 C         139.1498  140.0182  169.0106 C.ar    1  UNL1        0.0290
     12 C         139.0848  139.9715  167.5128 C.ar    1  UNL1        0.1361
     13 F         138.4486  138.7996  166.8258 F       1  UNL1       -0.2045
     14 C         139.6559  141.0968  166.7019 C.ar    1  UNL1        0.0048
     15 C         140.2921  142.2687  167.3889 C.ar    1  UNL1       -0.0050
     16 N         140.1356  144.5287  170.2289 N.3     1  UNL1       -0.3175
     17 C         140.9934  143.4872  169.5737 C.3     1  UNL1        0.0922
     18 H         140.7297  145.2468  170.6435 H       1  UNL1        0.1192
     19 H         139.5693  144.0938  170.9573 H       1  UNL1        0.1192
     20 C         140.6580  140.9732  159.9026 C.ar    1  UNL1        0.0537
     21 C         141.4615  142.2392  159.8638 C.ar    1  UNL1        0.0045
     22 C         142.7239  142.3019  159.0560 C.ar    1  UNL1        0.0003
     23 C         143.1827  141.0986  158.2869 C.ar    1  UNL1        0.0047
     24 C         142.3792  139.8326  158.3257 C.ar    1  UNL1        0.0562
     25 C         141.1169  139.7698  159.1335 C.ar    1  UNL1        0.0092
     26 C         142.8380  138.6292  157.5566 C.ar    1  UNL1        0.2600
     27 N         142.3871  137.2160  157.7792 N.ar    1  UNL1       -0.1865
     28 C         143.0987  136.3412  156.7900 C.ar    1  UNL1        0.2096
     29 N         143.9895  137.2138  155.9562 N.ar    1  UNL1       -0.0551
     30 O         143.8284  138.6278  156.4300 O.2     1  UNL1       -0.3324
     31 C         142.9464  134.8548  156.6579 C.ar    1  UNL1        0.0685
     32 C         142.0605  134.1429  155.6790 C.ar    1  UNL1        0.0102
     33 C         142.2198  132.6675  155.8977 C.ar    1  UNL1        0.0076
     34 C         143.2041  132.4676  157.0118 C.ar    1  UNL1        0.0355
     35 S         143.6531  133.8195  157.4817 S.2     1  UNL1       -0.0832
@<TRIPOS>BOND
     1    16    17    1
     2    17     9    1
     3     9    10   ar
     4    10    11   ar
     5    11    12   ar
     6    12    13    1
     7    12    14   ar
     8    14     1    1
     9     1     2    1
    10     2     3    1
    11     3     4    1
    12     4     5   am
    13     5     6    2
    14     5    20    1
    15    20    21   ar
    16    21    22   ar
    17    22    23   ar
    18    23    24   ar
    19    24    26    1
    20    26    27   ar
    21    27    28   ar
    22    28    31    1
    23    31    32   ar
    24    32    33   ar
    25    33    34   ar
    26    34    35   ar
    27    28    29   ar
    28    29    30   ar
    29    24    25   ar
    30     4     7    1
    31     7     8    1
    32    14    15   ar
    33    15     9   ar
    34     8     1    1
    35    25    20   ar
    36    30    26   ar
    37    35    31   ar
    38    16    18    1
    39    16    19    1
@<TRIPOS>MOLECULE
*****
 35 39 0 0 0
SMALL
GASTEIGER

@<TRIPOS>ATOM
      1 C         139.1174  139.8793  162.8542 C.3     1  UNL1        0.0279
      2 C         140.2950  139.4506  162.0299 C.3     1  UNL1        0.0260
      3 C         140.2009  139.4465  160.5328 C.3     1  UNL1        0.0940
      4 N         138.9293  139.8710  159.8601 N.am    1  UNL1       -0.2761
      5 C         138.8352  139.8668  158.3631 C.2     1  UNL1        0.2490
      6 O         137.5635  140.2913  157.6903 O.2     1  UNL1       -0.2699
      7 C         137.7516  140.2996  160.6844 C.3     1  UNL1        0.0940
      8 C         137.8457  140.3038  162.1814 C.3     1  UNL1        0.0260
      9 C         138.3262  139.0959  166.6634 C.ar    1  UNL1       -0.0068
     10 C         139.3994  139.8917  167.3453 C.ar    1  UNL1       -0.0006
     11 C         140.3785  140.6834  166.5301 C.ar    1  UNL1        0.0290
     12 C         140.2845  140.6793  165.0331 C.ar    1  UNL1        0.1361
     13 F         141.2637  141.4710  164.2180 F       1  UNL1       -0.2045
     14 C         139.2114  139.8834  164.3513 C.ar    1  UNL1        0.0048
     15 C         138.2322  139.0917  165.1664 C.ar    1  UNL1       -0.0050
     16 N         137.1940  136.8306  167.2437 N.3     1  UNL1       -0.3175
     17 C         137.3471  138.3041  167.4786 C.3     1  UNL1        0.0922
     18 H         136.4911  136.4560  167.8808 H       1  UNL1        0.1192
     19 H         138.0863  136.3653  167.4101 H       1  UNL1        0.1192
     20 C         140.0128  139.4382  157.5388 C.ar    1  UNL1        0.0537
     21 C         140.9189  140.4685  156.9327 C.ar    1  UNL1        0.0045
     22 C         142.0965  140.0398  156.1084 C.ar    1  UNL1        0.0003
     23 C         142.3681  138.5808  155.8903 C.ar    1  UNL1        0.0047
     24 C         141.4620  137.5505  156.4964 C.ar    1  UNL1        0.0562
     25 C         140.2844  137.9791  157.3207 C.ar    1  UNL1        0.0092
     26 C         141.7335  136.0915  156.2783 C.ar    1  UNL1        0.2600
     27 N         142.6951  135.2470  157.0608 N.ar    1  UNL1       -0.1865
     28 C         142.6470  133.8544  156.5055 C.ar    1  UNL1        0.2096
     29 N         141.6557  133.8382  155.3798 N.ar    1  UNL1       -0.0551
     30 O         141.0911  135.2208  155.2394 O.2     1  UNL1       -0.3324
     31 C         143.4494  132.6835  156.9907 C.ar    1  UNL1        0.0685
     32 C         144.7464  132.7537  157.7408 C.ar    1  UNL1        0.0102
     33 C         145.1942  131.3505  158.0246 C.ar    1  UNL1        0.0076
     34 C         144.1739  130.4132  157.4499 C.ar    1  UNL1        0.0355
     35 S         143.0955  131.2370  156.8109 S.2     1  UNL1       -0.0832
@<TRIPOS>BOND
     1    16    17    1
     2    17     9    1
     3     9    10   ar
     4    10    11   ar
     5    11    12   ar
     6    12    13    1
     7    12    14   ar
     8    14     1    1
     9     1     2    1
    10     2     3    1
    11     3     4    1
    12     4     5   am
    13     5     6    2
    14     5    20    1
    15    20    21   ar
    16    21    22   ar
    17    22    23   ar
    18    23    24   ar
    19    24    26    1
    20    26    27   ar
    21    27    28   ar
    22    28    31    1
    23    31    32   ar
    24    32    33   ar
    25    33    34   ar
    26    34    35   ar
    27    28    29   ar
    28    29    30   ar
    29    24    25   ar
    30     4     7    1
    31     7     8    1
    32    14    15   ar
    33    15     9   ar
    34     8     1    1
    35    25    20   ar
    36    30    26   ar
    37    35    31   ar
    38    16    18    1
    39    16    19    1
@<TRIPOS>MOLECULE
*****
 35 39 0 0 0
SMALL
GASTEIGER

@<TRIPOS>ATOM
      1 C         142.3653  141.9045  165.7291 C.3     1  UNL1        0.0279
      2 C         141.4948  141.3535  164.6389 C.3     1  UNL1        0.0260
      3 C         141.9336  141.4501  163.2078 C.3     1  UNL1        0.0940
      4 N         143.2429  142.0978  162.8669 N.am    1  UNL1       -0.2761
      5 C         143.6817  142.1945  161.4358 C.2     1  UNL1        0.2490
      6 O         144.9910  142.8421  161.0949 O.2     1  UNL1       -0.2699
      7 C         144.1134  142.6488  163.9572 C.3     1  UNL1        0.0940
      8 C         143.6746  142.5522  165.3882 C.3     1  UNL1        0.0260
      9 C         142.2174  140.8071  169.5402 C.ar    1  UNL1       -0.0068
     10 C         141.0490  141.6145  170.0225 C.ar    1  UNL1       -0.0006
     11 C         140.3193  142.5186  169.0738 C.ar    1  UNL1        0.0290
     12 C         140.7580  142.6153  167.6427 C.ar    1  UNL1        0.1361
     13 F         140.0283  143.5194  166.6939 F       1  UNL1       -0.2045
     14 C         141.9265  141.8078  167.1603 C.ar    1  UNL1        0.0048
     15 C         142.6562  140.9037  168.1091 C.ar    1  UNL1       -0.0050
     16 N         142.8473  138.4145  170.3330 N.3     1  UNL1       -0.3175
     17 C         142.9472  139.9030  170.4889 C.3     1  UNL1        0.0922
     18 H         143.4019  137.9587  171.0577 H       1  UNL1        0.1192
     19 H         143.2000  138.1444  169.4148 H       1  UNL1        0.1192
     20 C         142.8112  141.6434  160.3456 C.ar    1  UNL1        0.0537
     21 C         141.4881  142.2837  160.0466 C.ar    1  UNL1        0.0045
     22 C         140.6175  141.7326  158.9563 C.ar    1  UNL1        0.0003
     23 C         141.0702  140.5414  158.1651 C.ar    1  UNL1        0.0047
     24 C         142.3933  139.9011  158.4641 C.ar    1  UNL1        0.0562
     25 C         143.2638  140.4522  159.5543 C.ar    1  UNL1        0.0092
     26 C         142.8460  138.7099  157.6729 C.ar    1  UNL1        0.2600
     27 N         142.2864  137.3217  157.7714 N.ar    1  UNL1       -0.1865
     28 C         143.0323  136.4515  156.8036 C.ar    1  UNL1        0.2096
     29 N         144.0529  137.3020  156.1070 N.ar    1  UNL1       -0.0551
     30 O         143.9377  138.6977  156.6443 O.2     1  UNL1       -0.3324
     31 C         142.7987  134.9879  156.5729 C.ar    1  UNL1        0.0685
     32 C         143.4479  133.8625  157.3226 C.ar    1  UNL1        0.0102
     33 C         142.9253  132.5718  156.7651 C.ar    1  UNL1        0.0076
     34 C         141.9531  132.8995  155.6708 C.ar    1  UNL1        0.0355
     35 S         141.8749  134.3927  155.5520 S.2     1  UNL1       -0.0832
@<TRIPOS>BOND
     1    16    17    1
     2    17     9    1
     3     9    10   ar
     4    10    11   ar
     5    11    12   ar
     6    12    13    1
     7    12    14   ar
     8    14     1    1
     9     1     2    1
    10     2     3    1
    11     3     4    1
    12     4     5   am
    13     5     6    2
    14     5    20    1
    15    20    21   ar
    16    21    22   ar
    17    22    23   ar
    18    23    24   ar
    19    24    26    1
    20    26    27   ar
    21    27    28   ar
    22    28    31    1
    23    31    32   ar
    24    32    33   ar
    25    33    34   ar
    26    34    35   ar
    27    28    29   ar
    28    29    30   ar
    29    24    25   ar
    30     4     7    1
    31     7     8    1
    32    14    15   ar
    33    15     9   ar
    34     8     1    1
    35    25    20   ar
    36    30    26   ar
    37    35    31   ar
    38    16    18    1
    39    16    19    1
@<TRIPOS>MOLECULE
*****
 35 39 0 0 0
SMALL
GASTEIGER

@<TRIPOS>ATOM
      1 C         142.7996  141.6030  166.4110 C.3     1  UNL1        0.0279
      2 C         142.2270  141.0382  165.1449 C.3     1  UNL1        0.0260
      3 C         142.4953  141.7147  163.8332 C.3     1  UNL1        0.0940
      4 N         143.3361  142.9561  163.7878 N.am    1  UNL1       -0.2761
      5 C         143.6044  143.6326  162.4762 C.2     1  UNL1        0.2490
      6 O         144.4452  144.8740  162.4308 O.2     1  UNL1       -0.2699
      7 C         143.9087  143.5209  165.0540 C.3     1  UNL1        0.0940
      8 C         143.6404  142.8443  166.3656 C.3     1  UNL1        0.0260
      9 C         141.6357  141.0179  170.1598 C.ar    1  UNL1       -0.0068
     10 C         141.9948  139.5735  170.3459 C.ar    1  UNL1       -0.0006
     11 C         142.6221  138.8055  169.2204 C.ar    1  UNL1        0.0290
     12 C         142.8903  139.4820  167.9088 C.ar    1  UNL1        0.1361
     13 F         143.5176  138.7140  166.7833 F       1  UNL1       -0.2045
     14 C         142.5313  140.9264  167.7227 C.ar    1  UNL1        0.0048
     15 C         141.9040  141.6944  168.8482 C.ar    1  UNL1       -0.0050
     16 N         139.9278  142.7862  171.0000 N.3     1  UNL1       -0.3175
     17 C         141.0084  141.7859  171.2853 C.3     1  UNL1        0.0922
     18 H         139.6185  143.2112  171.8741 H       1  UNL1        0.1192
     19 H         139.1402  142.3175  170.5524 H       1  UNL1        0.1192
     20 C         143.0318  143.0678  161.2101 C.ar    1  UNL1        0.0537
     21 C         141.5473  143.0626  160.9952 C.ar    1  UNL1        0.0045
     22 C         140.9748  142.4978  159.7290 C.ar    1  UNL1        0.0003
     23 C         141.8867  141.9382  158.6778 C.ar    1  UNL1        0.0047
     24 C         143.3712  141.9433  158.8927 C.ar    1  UNL1        0.0562
     25 C         143.9438  142.5081  160.1588 C.ar    1  UNL1        0.0092
     26 C         144.2832  141.3837  157.8415 C.ar    1  UNL1        0.2600
     27 N         145.3646  142.1341  157.1220 N.ar    1  UNL1       -0.1865
     28 C         146.0237  141.1895  156.1610 C.ar    1  UNL1        0.2096
     29 N         145.3496  139.8553  156.2865 N.ar    1  UNL1       -0.0551
     30 O         144.2740  139.9753  157.3251 O.2     1  UNL1       -0.3324
     31 C         147.1576  141.5209  155.2367 C.ar    1  UNL1        0.0685
     32 C         148.5579  141.8670  155.6481 C.ar    1  UNL1        0.0102
     33 C         149.3561  142.1244  154.4044 C.ar    1  UNL1        0.0076
     34 C         148.4491  141.9373  153.2245 C.ar    1  UNL1        0.0355
     35 S         147.0903  141.5643  153.7389 S.2     1  UNL1       -0.0832
@<TRIPOS>BOND
     1    16    17    1
     2    17     9    1
     3     9    10   ar
     4    10    11   ar
     5    11    12   ar
     6    12    13    1
     7    12    14   ar
     8    14     1    1
     9     1     2    1
    10     2     3    1
    11     3     4    1
    12     4     5   am
    13     5     6    2
    14     5    20    1
    15    20    21   ar
    16    21    22   ar
    17    22    23   ar
    18    23    24   ar
    19    24    26    1
    20    26    27   ar
    21    27    28   ar
    22    28    31    1
    23    31    32   ar
    24    32    33   ar
    25    33    34   ar
    26    34    35   ar
    27    28    29   ar
    28    29    30   ar
    29    24    25   ar
    30     4     7    1
    31     7     8    1
    32    14    15   ar
    33    15     9   ar
    34     8     1    1
    35    25    20   ar
    36    30    26   ar
    37    35    31   ar
    38    16    18    1
    39    16    19    1
@<TRIPOS>MOLECULE
*****
 35 39 0 0 0
SMALL
GASTEIGER

@<TRIPOS>ATOM
      1 C         140.2160  140.7522  165.5681 C.3     1  UNL1        0.0279
      2 C         141.0204  141.1849  164.3783 C.3     1  UNL1        0.0260
      3 C         140.5410  140.8670  162.9929 C.3     1  UNL1        0.0940
      4 N         139.2572  140.1164  162.7975 N.am    1  UNL1       -0.2761
      5 C         138.7777  139.7985  161.4122 C.2     1  UNL1        0.2490
      6 O         137.4939  139.0478  161.2167 O.2     1  UNL1       -0.2699
      7 C         138.4527  139.6836  163.9873 C.3     1  UNL1        0.0940
      8 C         138.9322  140.0015  165.3726 C.3     1  UNL1        0.0260
      9 C         141.8025  140.3160  169.1796 C.ar    1  UNL1       -0.0068
     10 C         141.6543  141.7057  169.7240 C.ar    1  UNL1       -0.0006
     11 C         141.0267  142.7777  168.8832 C.ar    1  UNL1        0.0290
     12 C         140.5473  142.4599  167.4979 C.ar    1  UNL1        0.1361
     13 F         139.9197  143.5318  166.6570 F       1  UNL1       -0.2045
     14 C         140.6955  141.0701  166.9535 C.ar    1  UNL1        0.0048
     15 C         141.3231  139.9981  167.7943 C.ar    1  UNL1       -0.0050
     16 N         143.4645  139.6040  171.0453 N.3     1  UNL1       -0.3175
     17 C         142.4301  139.2440  170.0204 C.3     1  UNL1        0.0922
     18 H         143.7807  138.7588  171.5207 H       1  UNL1        0.1192
     19 H         143.0592  140.2459  171.7265 H       1  UNL1        0.1192
     20 C         139.5821  140.2312  160.2224 C.ar    1  UNL1        0.0537
     21 C         139.5026  141.6489  159.7388 C.ar    1  UNL1        0.0045
     22 C         140.3071  142.0816  158.5489 C.ar    1  UNL1        0.0003
     23 C         141.1910  141.0967  157.8428 C.ar    1  UNL1        0.0047
     24 C         141.2705  139.6791  158.3264 C.ar    1  UNL1        0.0562
     25 C         140.4661  139.2463  159.5162 C.ar    1  UNL1        0.0092
     26 C         142.1544  138.6942  157.6203 C.ar    1  UNL1        0.2600
     27 N         141.8606  137.2383  157.4104 N.ar    1  UNL1       -0.1865
     28 C         143.0120  136.6365  156.6604 C.ar    1  UNL1        0.2096
     29 N         144.0173  137.7206  156.4069 N.ar    1  UNL1       -0.0551
     30 O         143.4873  138.9922  157.0001 O.2     1  UNL1       -0.3324
     31 C         143.1362  135.2025  156.2382 C.ar    1  UNL1        0.0685
     32 C         142.8200  134.6532  154.8787 C.ar    1  UNL1        0.0102
     33 C         143.0868  133.1773  154.9016 C.ar    1  UNL1        0.0076
     34 C         143.5679  132.8145  156.2752 C.ar    1  UNL1        0.0355
     35 S         143.5985  134.0662  157.1013 S.2     1  UNL1       -0.0832
@<TRIPOS>BOND
     1    16    17    1
     2    17     9    1
     3     9    10   ar
     4    10    11   ar
     5    11    12   ar
     6    12    13    1
     7    12    14   ar
     8    14     1    1
     9     1     2    1
    10     2     3    1
    11     3     4    1
    12     4     5   am
    13     5     6    2
    14     5    20    1
    15    20    21   ar
    16    21    22   ar
    17    22    23   ar
    18    23    24   ar
    19    24    26    1
    20    26    27   ar
    21    27    28   ar
    22    28    31    1
    23    31    32   ar
    24    32    33   ar
    25    33    34   ar
    26    34    35   ar
    27    28    29   ar
    28    29    30   ar
    29    24    25   ar
    30     4     7    1
    31     7     8    1
    32    14    15   ar
    33    15     9   ar
    34     8     1    1
    35    25    20   ar
    36    30    26   ar
    37    35    31   ar
    38    16    18    1
    39    16    19    1
@<TRIPOS>MOLECULE
*****
 35 39 0 0 0
SMALL
GASTEIGER

@<TRIPOS>ATOM
      1 C         140.5778  139.7636  164.8015 C.3     1  UNL1        0.0279
      2 C         141.6239  140.0279  163.7596 C.3     1  UNL1        0.0260
      3 C         141.2516  140.0292  162.3064 C.3     1  UNL1        0.0940
      4 N         139.8332  139.7663  161.8954 N.am    1  UNL1       -0.2761
      5 C         139.4609  139.7676  160.4424 C.2     1  UNL1        0.2490
      6 O         138.0424  139.5047  160.0313 O.2     1  UNL1       -0.2699
      7 C         138.7870  139.5020  162.9375 C.3     1  UNL1        0.0940
      8 C         139.1594  139.5007  164.3905 C.3     1  UNL1        0.0260
      9 C         140.3751  140.3247  168.7251 C.ar    1  UNL1       -0.0068
     10 C         141.6945  139.7597  169.1608 C.ar    1  UNL1       -0.0006
     11 C         142.6417  139.1960  168.1434 C.ar    1  UNL1        0.0290
     12 C         142.2695  139.1973  166.6903 C.ar    1  UNL1        0.1361
     13 F         143.2167  138.6336  165.6729 F       1  UNL1       -0.2045
     14 C         140.9501  139.7623  166.2547 C.ar    1  UNL1        0.0048
     15 C         140.0029  140.3260  167.2721 C.ar    1  UNL1       -0.0050
     16 N         138.3850  140.0082  170.3650 N.3     1  UNL1       -0.3175
     17 C         139.4279  140.8884  169.7425 C.3     1  UNL1        0.0922
     18 H         137.8335  140.5518  171.0288 H       1  UNL1        0.1192
     19 H         138.8390  139.2356  170.8524 H       1  UNL1        0.1192
     20 C         140.5070  140.0319  159.4004 C.ar    1  UNL1        0.0537
     21 C         140.8401  141.4421  159.0128 C.ar    1  UNL1        0.0045
     22 C         141.8862  141.7063  157.9707 C.ar    1  UNL1        0.0003
     23 C         142.5992  140.5604  157.3163 C.ar    1  UNL1        0.0047
     24 C         142.2661  139.1501  157.7039 C.ar    1  UNL1        0.0562
     25 C         141.2200  138.8858  158.7459 C.ar    1  UNL1        0.0092
     26 C         142.9791  138.0041  157.0495 C.ar    1  UNL1        0.2600
     27 N         142.6943  136.5478  157.2686 N.ar    1  UNL1       -0.1865
     28 C         143.6414  135.7568  156.4156 C.ar    1  UNL1        0.2096
     29 N         144.5115  136.7243  155.6693 N.ar    1  UNL1       -0.0551
     30 O         144.1022  138.1132  156.0611 O.2     1  UNL1       -0.3324
     31 C         143.7068  134.2610  156.3248 C.ar    1  UNL1        0.0685
     32 C         144.2351  133.3359  157.3807 C.ar    1  UNL1        0.0102
     33 C         144.1102  131.9308  156.8706 C.ar    1  UNL1        0.0076
     34 C         143.5046  131.9876  155.4994 C.ar    1  UNL1        0.0355
     35 S         143.2553  133.4277  155.1621 S.2     1  UNL1       -0.0832
@<TRIPOS>BOND
     1    16    17    1
     2    17     9    1
     3     9    10   ar
     4    10    11   ar
     5    11    12   ar
     6    12    13    1
     7    12    14   ar
     8    14     1    1
     9     1     2    1
    10     2     3    1
    11     3     4    1
    12     4     5   am
    13     5     6    2
    14     5    20    1
    15    20    21   ar
    16    21    22   ar
    17    22    23   ar
    18    23    24   ar
    19    24    26    1
    20    26    27   ar
    21    27    28   ar
    22    28    31    1
    23    31    32   ar
    24    32    33   ar
    25    33    34   ar
    26    34    35   ar
    27    28    29   ar
    28    29    30   ar
    29    24    25   ar
    30     4     7    1
    31     7     8    1
    32    14    15   ar
    33    15     9   ar
    34     8     1    1
    35    25    20   ar
    36    30    26   ar
    37    35    31   ar
    38    16    18    1
    39    16    19    1
@<TRIPOS>MOLECULE
*****
 35 39 0 0 0
SMALL
GASTEIGER

@<TRIPOS>ATOM
      1 C         142.1610  142.2122  166.5606 C.3     1  UNL1        0.0279
      2 C         141.1254  142.1175  165.4796 C.3     1  UNL1        0.0260
      3 C         141.4447  142.5886  164.0917 C.3     1  UNL1        0.0940
      4 N         142.7997  143.1544  163.7849 N.am    1  UNL1       -0.2761
      5 C         143.1190  143.6254  162.3971 C.2     1  UNL1        0.2490
      6 O         144.4739  144.1912  162.0903 O.2     1  UNL1       -0.2699
      7 C         143.8352  143.2490  164.8660 C.3     1  UNL1        0.0940
      8 C         143.5159  142.7780  166.2538 C.3     1  UNL1        0.0260
      9 C         142.2507  140.0933  169.9150 C.ar    1  UNL1       -0.0068
     10 C         141.2031  140.7989  170.7241 C.ar    1  UNL1       -0.0006
     11 C         140.4747  141.9755  170.1453 C.ar    1  UNL1        0.0290
     12 C         140.7940  142.4467  168.7575 C.ar    1  UNL1        0.1361
     13 F         140.0657  143.6233  168.1788 F       1  UNL1       -0.2045
     14 C         141.8416  141.7411  167.9485 C.ar    1  UNL1        0.0048
     15 C         142.5700  140.5644  168.5272 C.ar    1  UNL1       -0.0050
     16 N         144.1000  139.1329  171.4667 N.3     1  UNL1       -0.3175
     17 C         142.9790  138.9166  170.4938 C.3     1  UNL1        0.0922
     18 H         144.4783  138.2308  171.7555 H       1  UNL1        0.1192
     19 H         143.7492  139.6320  172.2842 H       1  UNL1        0.1192
     20 C         142.0835  143.5308  161.3161 C.ar    1  UNL1        0.0537
     21 C         141.3592  144.7631  160.8612 C.ar    1  UNL1        0.0045
     22 C         140.3236  144.6683  159.7801 C.ar    1  UNL1        0.0003
     23 C         140.0123  143.3413  159.1540 C.ar    1  UNL1        0.0047
     24 C         140.7366  142.1090  159.6088 C.ar    1  UNL1        0.0562
     25 C         141.7721  142.2037  160.6899 C.ar    1  UNL1        0.0092
     26 C         140.4252  140.7820  158.9827 C.ar    1  UNL1        0.2600
     27 N         141.3976  139.8993  158.2578 N.ar    1  UNL1       -0.1865
     28 C         140.6602  138.6764  157.7985 C.ar    1  UNL1        0.2096
     29 N         139.2321  138.8033  158.2397 N.ar    1  UNL1       -0.0551
     30 O         139.0869  140.1046  158.9715 O.2     1  UNL1       -0.3324
     31 C         141.2477  137.5282  157.0327 C.ar    1  UNL1        0.0685
     32 C         140.5910  136.7957  155.9004 C.ar    1  UNL1        0.0102
     33 C         141.5325  135.7258  155.4326 C.ar    1  UNL1        0.0076
     34 C         142.7710  135.7971  156.2758 C.ar    1  UNL1        0.0355
     35 S         142.5949  136.9111  157.2648 S.2     1  UNL1       -0.0832
@<TRIPOS>BOND
     1    16    17    1
     2    17     9    1
     3     9    10   ar
     4    10    11   ar
     5    11    12   ar
     6    12    13    1
     7    12    14   ar
     8    14     1    1
     9     1     2    1
    10     2     3    1
    11     3     4    1
    12     4     5   am
    13     5     6    2
    14     5    20    1
    15    20    21   ar
    16    21    22   ar
    17    22    23   ar
    18    23    24   ar
    19    24    26    1
    20    26    27   ar
    21    27    28   ar
    22    28    31    1
    23    31    32   ar
    24    32    33   ar
    25    33    34   ar
    26    34    35   ar
    27    28    29   ar
    28    29    30   ar
    29    24    25   ar
    30     4     7    1
    31     7     8    1
    32    14    15   ar
    33    15     9   ar
    34     8     1    1
    35    25    20   ar
    36    30    26   ar
    37    35    31   ar
    38    16    18    1
    39    16    19    1
@<TRIPOS>MOLECULE
*****
 35 39 0 0 0
SMALL
GASTEIGER

@<TRIPOS>ATOM
      1 C         141.5532  141.7720  166.0200 C.3     1  UNL1        0.0279
      2 C         142.5468  141.2502  165.0248 C.3     1  UNL1        0.0260
      3 C         142.3107  141.4451  163.5563 C.3     1  UNL1        0.0940
      4 N         141.0808  142.1617  163.0831 N.am    1  UNL1       -0.2761
      5 C         140.8446  142.3566  161.6147 C.2     1  UNL1        0.2490
      6 O         139.6148  143.0732  161.1415 O.2     1  UNL1       -0.2699
      7 C         140.0871  142.6835  164.0783 C.3     1  UNL1        0.0940
      8 C         140.3233  142.4886  165.5467 C.3     1  UNL1        0.0260
      9 C         141.0241  140.6323  169.7844 C.ar    1  UNL1       -0.0068
     10 C         142.2615  141.1874  170.4252 C.ar    1  UNL1       -0.0006
     11 C         143.2628  141.9374  169.5976 C.ar    1  UNL1        0.0290
     12 C         143.0267  142.1323  168.1292 C.ar    1  UNL1        0.1361
     13 F         144.0280  142.8823  167.3016 F       1  UNL1       -0.2045
     14 C         141.7893  141.5771  167.4884 C.ar    1  UNL1        0.0048
     15 C         140.7880  140.8271  168.3160 C.ar    1  UNL1       -0.0050
     16 N         138.5561  140.0422  170.3418 N.3     1  UNL1       -0.3175
     17 C         140.0228  139.8823  170.6120 C.3     1  UNL1        0.0922
     18 H         138.0253  139.4640  170.9933 H       1  UNL1        0.1192
     19 H         138.3529  139.7512  169.3856 H       1  UNL1        0.1192
     20 C         141.8383  141.8348  160.6196 C.ar    1  UNL1        0.0537
     21 C         143.1153  142.5819  160.3725 C.ar    1  UNL1        0.0045
     22 C         144.1090  142.0600  159.3773 C.ar    1  UNL1        0.0003
     23 C         143.8256  140.7912  158.6292 C.ar    1  UNL1        0.0047
     24 C         142.5486  140.0441  158.8763 C.ar    1  UNL1        0.0562
     25 C         141.5549  140.5659  159.8714 C.ar    1  UNL1        0.0092
     26 C         142.2652  138.7753  158.1282 C.ar    1  UNL1        0.2600
     27 N         143.1454  137.5614  158.0858 N.ar    1  UNL1       -0.1865
     28 C         142.4760  136.5333  157.2225 C.ar    1  UNL1        0.2096
     29 N         141.1821  137.1119  156.7313 N.ar    1  UNL1       -0.0551
     30 O         141.0518  138.4975  157.2911 O.2     1  UNL1       -0.3324
     31 C         143.0072  135.1667  156.9060 C.ar    1  UNL1        0.0685
     32 C         143.7250  134.2574  157.8587 C.ar    1  UNL1        0.0102
     33 C         144.0753  132.9982  157.1227 C.ar    1  UNL1        0.0076
     34 C         143.5740  133.1294  155.7150 C.ar    1  UNL1        0.0355
     35 S         142.9138  134.4696  155.5811 S.2     1  UNL1       -0.0832
@<TRIPOS>BOND
     1    16    17    1
     2    17     9    1
     3     9    10   ar
     4    10    11   ar
     5    11    12   ar
     6    12    13    1
     7    12    14   ar
     8    14     1    1
     9     1     2    1
    10     2     3    1
    11     3     4    1
    12     4     5   am
    13     5     6    2
    14     5    20    1
    15    20    21   ar
    16    21    22   ar
    17    22    23   ar
    18    23    24   ar
    19    24    26    1
    20    26    27   ar
    21    27    28   ar
    22    28    31    1
    23    31    32   ar
    24    32    33   ar
    25    33    34   ar
    26    34    35   ar
    27    28    29   ar
    28    29    30   ar
    29    24    25   ar
    30     4     7    1
    31     7     8    1
    32    14    15   ar
    33    15     9   ar
    34     8     1    1
    35    25    20   ar
    36    30    26   ar
    37    35    31   ar
    38    16    18    1
    39    16    19    1
