@<TRIPOS>MOLECULE
*****
 34 36 0 0 0
SMALL
GASTEIGER

@<TRIPOS>ATOM
      1 C         139.1489  140.9159  163.6089 C.ar    1  UNL1        0.0043
      2 C         140.1563  141.7312  162.8537 C.ar    1  UNL1       -0.0011
      3 C         141.3548  142.2877  163.5635 C.ar    1  UNL1        0.0104
      4 C         142.3622  143.1030  162.8081 C.ar    1  UNL1        0.0585
      5 CL        142.1711  143.3617  161.3430 Cl      1  UNL1       -0.0822
      6 C         143.5607  143.6596  163.5179 C.ar    1  UNL1        0.0228
      7 C         143.7518  143.4008  164.9831 C.ar    1  UNL1        0.0585
      8 CL        144.9503  143.9574  165.6929 Cl      1  UNL1       -0.0822
      9 C         142.7444  142.5856  165.7383 C.ar    1  UNL1        0.0114
     10 C         141.5459  142.0290  165.0285 C.ar    1  UNL1        0.0016
     11 C         140.5385  141.2137  165.7839 C.ar    1  UNL1       -0.0002
     12 C         140.7296  140.9550  167.2490 C.ar    1  UNL1        0.0038
     13 C         139.7222  140.1398  168.0042 C.ar    1  UNL1        0.0714
     14 C         138.5237  139.5832  167.2944 C.ar    1  UNL1        0.0038
     15 C         138.3326  139.8419  165.8294 C.ar    1  UNL1       -0.0003
     16 C         139.3400  140.6572  165.0741 C.ar    1  UNL1       -0.0017
     17 C         139.9133  139.8810  169.4694 C.3     1  UNL1        0.4186
     18 F         140.1045  139.6223  170.9345 F       1  UNL1       -0.1659
     19 F         141.3487  139.5246  169.2192 F       1  UNL1       -0.1659
     20 F         138.4780  140.2375  169.7196 F       1  UNL1       -0.1659
     21 C         137.9504  140.3594  162.8991 C.3     1  UNL1        0.1341
     22 O         136.6400  141.0874  162.9559 O.3     1  UNL1       -0.3800
     23 H         136.7401  141.8923  163.4878 H       1  UNL1        0.2108
     24 C         138.0621  139.0749  162.1326 C.3     1  UNL1        0.0511
     25 C         138.7554  137.8940  162.7448 C.3     1  UNL1        0.0749
     26 N         140.2190  137.6740  162.5008 N.3     1  UNL1       -0.2726
     27 C         141.0644  137.0185  163.5523 C.3     1  UNL1        0.0721
     28 C         141.3776  137.7478  164.8250 C.3     1  UNL1        0.0173
     29 C         143.3276  138.5167  166.3600 C.3     1  UNL1        0.0000
     30 C         142.7083  138.4182  164.9974 C.3     1  UNL1        0.0014
     31 C         140.8371  138.1095  161.2053 C.3     1  UNL1        0.0721
     32 C         142.3123  138.3699  161.1284 C.3     1  UNL1        0.0173
     33 C         142.8517  139.7309  161.4556 C.3     1  UNL1        0.0014
     34 C         144.2603  139.8807  161.9486 C.3     1  UNL1        0.0000
@<TRIPOS>BOND
     1    29    30    1
     2    30    28    1
     3    28    27    1
     4    27    26    1
     5    26    31    1
     6    31    32    1
     7    32    33    1
     8    33    34    1
     9    26    25    1
    10    25    24    1
    11    24    21    1
    12    21    22    1
    13    21     1    1
    14     1     2   ar
    15     2     3   ar
    16     3     4   ar
    17     4     5    1
    18     4     6   ar
    19     6     7   ar
    20     7     8    1
    21     7     9   ar
    22     9    10   ar
    23    10    11   ar
    24    11    12   ar
    25    12    13   ar
    26    13    17    1
    27    17    18    1
    28    17    19    1
    29    17    20    1
    30    13    14   ar
    31    14    15   ar
    32    15    16   ar
    33    16     1   ar
    34    10     3   ar
    35    16    11   ar
    36    22    23    1
@<TRIPOS>MOLECULE
*****
 34 36 0 0 0
SMALL
GASTEIGER

@<TRIPOS>ATOM
      1 C         139.1842  140.9325  163.5834 C.ar    1  UNL1        0.0043
      2 C         140.1901  141.7539  162.8327 C.ar    1  UNL1       -0.0011
      3 C         141.3855  142.3121  163.5465 C.ar    1  UNL1        0.0104
      4 C         142.3913  143.1335  162.7958 C.ar    1  UNL1        0.0585
      5 CL        142.2018  143.3968  161.3313 Cl      1  UNL1       -0.0822
      6 C         143.5867  143.6917  163.5096 C.ar    1  UNL1        0.0228
      7 C         143.7762  143.4284  164.9742 C.ar    1  UNL1        0.0585
      8 CL        144.9716  143.9865  165.6880 Cl      1  UNL1       -0.0822
      9 C         142.7704  142.6070  165.7248 C.ar    1  UNL1        0.0114
     10 C         141.5750  142.0488  165.0110 C.ar    1  UNL1        0.0016
     11 C         140.5691  141.2274  165.7618 C.ar    1  UNL1       -0.0002
     12 C         140.7587  140.9642  167.2262 C.ar    1  UNL1        0.0038
     13 C         139.7528  140.1428  167.9769 C.ar    1  UNL1        0.0714
     14 C         138.5574  139.5846  167.2631 C.ar    1  UNL1        0.0038
     15 C         138.3679  139.8479  165.7986 C.ar    1  UNL1       -0.0003
     16 C         139.3737  140.6693  165.0479 C.ar    1  UNL1       -0.0017
     17 C         139.9423  139.8795  169.4414 C.3     1  UNL1        0.4186
     18 F         140.1318  139.6162  170.9059 F       1  UNL1       -0.1659
     19 F         141.3629  139.4723  169.1844 F       1  UNL1       -0.1659
     20 F         138.5217  140.2867  169.6985 F       1  UNL1       -0.1659
     21 C         137.9888  140.3744  162.8696 C.3     1  UNL1        0.1341
     22 O         136.6668  141.0777  162.9575 O.3     1  UNL1       -0.3800
     23 H         136.7581  141.8698  163.5099 H       1  UNL1        0.2108
     24 C         138.1154  139.1130  162.0679 C.3     1  UNL1        0.0511
     25 C         138.7650  137.9029  162.6710 C.3     1  UNL1        0.0749
     26 N         140.2360  137.6721  162.4890 N.3     1  UNL1       -0.2726
     27 C         140.9195  138.1407  161.2387 C.3     1  UNL1        0.0721
     28 C         141.8737  139.2967  161.2939 C.3     1  UNL1        0.0173
     29 C         144.2461  140.0600  162.0281 C.3     1  UNL1        0.0000
     30 C         143.3503  139.0470  161.3789 C.3     1  UNL1        0.0014
     31 C         141.0232  136.9726  163.5571 C.3     1  UNL1        0.0721
     32 C         141.3523  137.6860  164.8348 C.3     1  UNL1        0.0173
     33 C         142.6451  138.4359  164.9637 C.3     1  UNL1        0.0014
     34 C         143.3505  138.4928  166.2862 C.3     1  UNL1        0.0000
@<TRIPOS>BOND
     1    29    30    1
     2    30    28    1
     3    28    27    1
     4    27    26    1
     5    26    31    1
     6    31    32    1
     7    32    33    1
     8    33    34    1
     9    26    25    1
    10    25    24    1
    11    24    21    1
    12    21    22    1
    13    21     1    1
    14     1     2   ar
    15     2     3   ar
    16     3     4   ar
    17     4     5    1
    18     4     6   ar
    19     6     7   ar
    20     7     8    1
    21     7     9   ar
    22     9    10   ar
    23    10    11   ar
    24    11    12   ar
    25    12    13   ar
    26    13    17    1
    27    17    18    1
    28    17    19    1
    29    17    20    1
    30    13    14   ar
    31    14    15   ar
    32    15    16   ar
    33    16     1   ar
    34    10     3   ar
    35    16    11   ar
    36    22    23    1
@<TRIPOS>MOLECULE
*****
 34 36 0 0 0
SMALL
GASTEIGER

@<TRIPOS>ATOM
      1 C         141.1340  139.8092  162.5786 C.ar    1  UNL1        0.0043
      2 C         141.3224  141.2795  162.3493 C.ar    1  UNL1       -0.0011
      3 C         140.6091  142.2717  163.2192 C.ar    1  UNL1        0.0104
      4 C         140.7976  143.7421  162.9898 C.ar    1  UNL1        0.0585
      5 CL        141.6994  144.2202  161.8907 Cl      1  UNL1       -0.0822
      6 C         140.0842  144.7343  163.8597 C.ar    1  UNL1        0.0228
      7 C         139.1824  144.2561  164.9588 C.ar    1  UNL1        0.0585
      8 CL        138.4690  145.2484  165.8287 Cl      1  UNL1       -0.0822
      9 C         138.9939  142.7858  165.1881 C.ar    1  UNL1        0.0114
     10 C         139.7073  141.7936  164.3183 C.ar    1  UNL1        0.0016
     11 C         139.5188  140.3232  164.5476 C.ar    1  UNL1       -0.0002
     12 C         138.6170  139.8451  165.6468 C.ar    1  UNL1        0.0038
     13 C         138.4285  138.3748  165.8760 C.ar    1  UNL1        0.0714
     14 C         139.1419  137.3826  165.0062 C.ar    1  UNL1        0.0038
     15 C         140.0437  137.8607  163.9071 C.ar    1  UNL1       -0.0003
     16 C         140.2321  139.3310  163.6778 C.ar    1  UNL1       -0.0017
     17 C         137.5267  137.8967  166.9752 C.3     1  UNL1        0.4186
     18 F         136.6249  137.4185  168.0743 F       1  UNL1       -0.1659
     19 F         137.5439  136.5162  166.3888 F       1  UNL1       -0.1659
     20 F         137.5094  139.2771  167.5617 F       1  UNL1       -0.1659
     21 C         141.8473  138.8169  161.7088 C.3     1  UNL1        0.1341
     22 O         141.2037  138.3282  160.4451 O.3     1  UNL1       -0.3800
     23 H         140.3362  138.7494  160.3402 H       1  UNL1        0.2108
     24 C         143.2043  138.3134  162.1026 C.3     1  UNL1        0.0511
     25 C         144.3433  139.2758  162.2650 C.3     1  UNL1        0.0749
     26 N         144.6243  139.8860  163.6062 N.3     1  UNL1       -0.2726
     27 C         145.4177  141.1554  163.7013 C.3     1  UNL1        0.0721
     28 C         144.7503  142.4769  163.4599 C.3     1  UNL1        0.0173
     29 C         144.0012  144.7386  164.4959 C.3     1  UNL1        0.0000
     30 C         144.1885  143.2550  164.6127 C.3     1  UNL1        0.0014
     31 C         144.1118  139.2268  164.8523 C.3     1  UNL1        0.0721
     32 C         143.1556  139.9569  165.7481 C.3     1  UNL1        0.0173
     33 C         142.3308  139.1962  166.7437 C.3     1  UNL1        0.0014
     34 C         141.5378  139.9346  167.7809 C.3     1  UNL1        0.0000
@<TRIPOS>BOND
     1    29    30    1
     2    30    28    1
     3    28    27    1
     4    27    26    1
     5    26    31    1
     6    31    32    1
     7    32    33    1
     8    33    34    1
     9    26    25    1
    10    25    24    1
    11    24    21    1
    12    21    22    1
    13    21     1    1
    14     1     2   ar
    15     2     3   ar
    16     3     4   ar
    17     4     5    1
    18     4     6   ar
    19     6     7   ar
    20     7     8    1
    21     7     9   ar
    22     9    10   ar
    23    10    11   ar
    24    11    12   ar
    25    12    13   ar
    26    13    17    1
    27    17    18    1
    28    17    19    1
    29    17    20    1
    30    13    14   ar
    31    14    15   ar
    32    15    16   ar
    33    16     1   ar
    34    10     3   ar
    35    16    11   ar
    36    22    23    1
@<TRIPOS>MOLECULE
*****
 34 36 0 0 0
SMALL
GASTEIGER

@<TRIPOS>ATOM
      1 C         141.0987  139.8127  162.5285 C.ar    1  UNL1        0.0043
      2 C         141.2852  141.2841  162.3051 C.ar    1  UNL1       -0.0011
      3 C         140.5789  142.2719  163.1857 C.ar    1  UNL1        0.0104
      4 C         140.7654  143.7434  162.9623 C.ar    1  UNL1        0.0585
      5 CL        141.6583  144.2271  161.8584 Cl      1  UNL1       -0.0822
      6 C         140.0591  144.7312  163.8429 C.ar    1  UNL1        0.0228
      7 C         139.1662  144.2473  164.9469 C.ar    1  UNL1        0.0585
      8 CL        138.4598  145.2351  165.8275 Cl      1  UNL1       -0.0822
      9 C         138.9797  142.7759  165.1702 C.ar    1  UNL1        0.0114
     10 C         139.6860  141.7881  164.2896 C.ar    1  UNL1        0.0016
     11 C         139.4994  140.3166  164.5130 C.ar    1  UNL1       -0.0002
     12 C         138.6066  139.8329  165.6170 C.ar    1  UNL1        0.0038
     13 C         138.4200  138.3614  165.8403 C.ar    1  UNL1        0.0714
     14 C         139.1264  137.3737  164.9597 C.ar    1  UNL1        0.0038
     15 C         140.0193  137.8574  163.8558 C.ar    1  UNL1       -0.0003
     16 C         140.2058  139.3289  163.6324 C.ar    1  UNL1       -0.0017
     17 C         137.5271  137.8776  166.9443 C.3     1  UNL1        0.4186
     18 F         136.6343  137.3938  168.0483 F       1  UNL1       -0.1659
     19 F         137.3935  139.2827  167.4520 F       1  UNL1       -0.1659
     20 F         137.6607  136.4725  166.4367 F       1  UNL1       -0.1659
     21 C         141.8050  138.8249  161.6479 C.3     1  UNL1        0.1341
     22 O         141.1909  138.4093  160.3439 O.3     1  UNL1       -0.3800
     23 H         140.3451  138.8688  160.2238 H       1  UNL1        0.2108
     24 C         143.1254  138.2528  162.0711 C.3     1  UNL1        0.0511
     25 C         144.2767  139.1661  162.3718 C.3     1  UNL1        0.0749
     26 N         144.4427  139.7350  163.7499 N.3     1  UNL1       -0.2726
     27 C         143.7959  139.0600  164.9228 C.3     1  UNL1        0.0721
     28 C         143.1467  139.8815  165.9968 C.3     1  UNL1        0.0173
     29 C         141.3359  140.1253  167.8438 C.3     1  UNL1        0.0000
     30 C         142.1091  139.2659  166.8882 C.3     1  UNL1        0.0014
     31 C         145.2553  140.9790  163.9548 C.3     1  UNL1        0.0721
     32 C         144.6845  142.3167  163.5877 C.3     1  UNL1        0.0173
     33 C         144.0535  143.1777  164.6416 C.3     1  UNL1        0.0014
     34 C         144.0045  144.6662  164.4637 C.3     1  UNL1        0.0000
@<TRIPOS>BOND
     1    29    30    1
     2    30    28    1
     3    28    27    1
     4    27    26    1
     5    26    31    1
     6    31    32    1
     7    32    33    1
     8    33    34    1
     9    26    25    1
    10    25    24    1
    11    24    21    1
    12    21    22    1
    13    21     1    1
    14     1     2   ar
    15     2     3   ar
    16     3     4   ar
    17     4     5    1
    18     4     6   ar
    19     6     7   ar
    20     7     8    1
    21     7     9   ar
    22     9    10   ar
    23    10    11   ar
    24    11    12   ar
    25    12    13   ar
    26    13    17    1
    27    17    18    1
    28    17    19    1
    29    17    20    1
    30    13    14   ar
    31    14    15   ar
    32    15    16   ar
    33    16     1   ar
    34    10     3   ar
    35    16    11   ar
    36    22    23    1
@<TRIPOS>MOLECULE
*****
 34 36 0 0 0
SMALL
GASTEIGER

@<TRIPOS>ATOM
      1 C         142.3444  140.5585  163.0890 C.ar    1  UNL1        0.0043
      2 C         141.5764  141.7033  162.4977 C.ar    1  UNL1       -0.0011
      3 C         140.7578  142.5946  163.3840 C.ar    1  UNL1        0.0104
      4 C         139.9898  143.7395  162.7926 C.ar    1  UNL1        0.0585
      5 CL        140.0405  143.9930  161.3151 Cl      1  UNL1       -0.0822
      6 C         139.1711  144.6308  163.6789 C.ar    1  UNL1        0.0228
      7 C         139.1205  144.3772  165.1565 C.ar    1  UNL1        0.0585
      8 CL        138.3019  145.2685  166.0427 Cl      1  UNL1       -0.0822
      9 C         139.8885  143.2324  165.7477 C.ar    1  UNL1        0.0114
     10 C         140.7071  142.3411  164.8615 C.ar    1  UNL1        0.0016
     11 C         141.4751  141.1963  165.4528 C.ar    1  UNL1       -0.0002
     12 C         141.4244  140.9428  166.9304 C.ar    1  UNL1        0.0038
     13 C         142.1924  139.7980  167.5216 C.ar    1  UNL1        0.0714
     14 C         143.0110  138.9067  166.6354 C.ar    1  UNL1        0.0038
     15 C         143.0617  139.1602  165.1579 C.ar    1  UNL1       -0.0003
     16 C         142.2937  140.3050  164.5666 C.ar    1  UNL1       -0.0017
     17 C         142.1417  139.5445  168.9992 C.3     1  UNL1        0.4186
     18 F         142.0911  139.2910  170.4768 F       1  UNL1       -0.1659
     19 F         141.2295  140.7228  169.1701 F       1  UNL1       -0.1659
     20 F         143.0540  138.3661  168.8284 F       1  UNL1       -0.1659
     21 C         143.1630  139.6673  162.2027 C.3     1  UNL1        0.1341
     22 O         144.6531  139.8299  162.1462 O.3     1  UNL1       -0.3800
     23 H         144.9225  140.5496  162.7381 H       1  UNL1        0.2108
     24 C         142.4916  138.6134  161.3730 C.3     1  UNL1        0.0511
     25 C         141.5444  137.6437  162.0153 C.3     1  UNL1        0.0749
     26 N         140.0740  137.9388  162.0440 N.3     1  UNL1       -0.2726
     27 C         139.4308  138.6582  160.8957 C.3     1  UNL1        0.0721
     28 C         138.1229  139.3659  161.0918 C.3     1  UNL1        0.0173
     29 C         137.5324  140.8938  163.1084 C.3     1  UNL1        0.0000
     30 C         138.0930  140.7242  161.7275 C.3     1  UNL1        0.0014
     31 C         139.2467  137.5145  163.2211 C.3     1  UNL1        0.0721
     32 C         139.5643  138.0403  164.5895 C.3     1  UNL1        0.0173
     33 C         138.5105  138.0384  165.6571 C.3     1  UNL1        0.0014
     34 C         138.2364  139.2864  166.4427 C.3     1  UNL1        0.0000
@<TRIPOS>BOND
     1    29    30    1
     2    30    28    1
     3    28    27    1
     4    27    26    1
     5    26    31    1
     6    31    32    1
     7    32    33    1
     8    33    34    1
     9    26    25    1
    10    25    24    1
    11    24    21    1
    12    21    22    1
    13    21     1    1
    14     1     2   ar
    15     2     3   ar
    16     3     4   ar
    17     4     5    1
    18     4     6   ar
    19     6     7   ar
    20     7     8    1
    21     7     9   ar
    22     9    10   ar
    23    10    11   ar
    24    11    12   ar
    25    12    13   ar
    26    13    17    1
    27    17    18    1
    28    17    19    1
    29    17    20    1
    30    13    14   ar
    31    14    15   ar
    32    15    16   ar
    33    16     1   ar
    34    10     3   ar
    35    16    11   ar
    36    22    23    1
@<TRIPOS>MOLECULE
*****
 34 36 0 0 0
SMALL
GASTEIGER

@<TRIPOS>ATOM
      1 C         141.1339  139.3252  163.3815 C.ar    1  UNL1        0.0043
      2 C         140.2035  140.2977  162.7193 C.ar    1  UNL1       -0.0011
      3 C         139.7185  141.5021  163.4704 C.ar    1  UNL1        0.0104
      4 C         138.7880  142.4745  162.8081 C.ar    1  UNL1        0.0585
      5 CL        138.3425  142.2426  161.3947 Cl      1  UNL1       -0.0822
      6 C         138.3030  143.6789  163.5593 C.ar    1  UNL1        0.0228
      7 C         138.7485  143.9109  164.9727 C.ar    1  UNL1        0.0585
      8 CL        138.2636  145.1153  165.7239 Cl      1  UNL1       -0.0822
      9 C         139.6790  142.9385  165.6350 C.ar    1  UNL1        0.0114
     10 C         140.1639  141.7340  164.8838 C.ar    1  UNL1        0.0016
     11 C         141.0944  140.7616  165.5461 C.ar    1  UNL1       -0.0002
     12 C         141.5399  140.9936  166.9595 C.ar    1  UNL1        0.0038
     13 C         142.4703  140.0211  167.6218 C.ar    1  UNL1        0.0714
     14 C         142.9553  138.8167  166.8706 C.ar    1  UNL1        0.0038
     15 C         142.5098  138.5848  165.4572 C.ar    1  UNL1       -0.0003
     16 C         141.5794  139.5572  164.7950 C.ar    1  UNL1       -0.0017
     17 C         142.9159  140.2531  169.0352 C.3     1  UNL1        0.4186
     18 F         143.3614  140.4850  170.4486 F       1  UNL1       -0.1659
     19 F         143.2980  141.6603  168.6838 F       1  UNL1       -0.1659
     20 F         142.5337  138.8458  169.3866 F       1  UNL1       -0.1659
     21 C         141.6189  138.1208  162.6304 C.3     1  UNL1        0.1341
     22 O         141.1139  136.7562  162.9948 O.3     1  UNL1       -0.3800
     23 H         140.4859  136.8296  163.7305 H       1  UNL1        0.2108
     24 C         142.6087  138.2811  161.5149 C.3     1  UNL1        0.0511
     25 C         144.0390  138.6120  161.8230 C.3     1  UNL1        0.0749
     26 N         144.4150  140.0052  162.2325 N.3     1  UNL1       -0.2726
     27 C         145.0047  140.2548  163.5890 C.3     1  UNL1        0.0721
     28 C         145.2748  141.6588  164.0425 C.3     1  UNL1        0.0173
     29 C         144.5903  143.7459  165.4301 C.3     1  UNL1        0.0000
     30 C         144.3277  142.3370  164.9876 C.3     1  UNL1        0.0014
     31 C         144.2013  141.1487  161.2856 C.3     1  UNL1        0.0721
     32 C         142.9390  141.9558  161.3571 C.3     1  UNL1        0.0173
     33 C         143.0072  143.4355  161.5933 C.3     1  UNL1        0.0014
     34 C         142.1284  144.0709  162.6295 C.3     1  UNL1        0.0000
@<TRIPOS>BOND
     1    29    30    1
     2    30    28    1
     3    28    27    1
     4    27    26    1
     5    26    31    1
     6    31    32    1
     7    32    33    1
     8    33    34    1
     9    26    25    1
    10    25    24    1
    11    24    21    1
    12    21    22    1
    13    21     1    1
    14     1     2   ar
    15     2     3   ar
    16     3     4   ar
    17     4     5    1
    18     4     6   ar
    19     6     7   ar
    20     7     8    1
    21     7     9   ar
    22     9    10   ar
    23    10    11   ar
    24    11    12   ar
    25    12    13   ar
    26    13    17    1
    27    17    18    1
    28    17    19    1
    29    17    20    1
    30    13    14   ar
    31    14    15   ar
    32    15    16   ar
    33    16     1   ar
    34    10     3   ar
    35    16    11   ar
    36    22    23    1
@<TRIPOS>MOLECULE
*****
 34 36 0 0 0
SMALL
GASTEIGER

@<TRIPOS>ATOM
      1 C         142.5826  140.0253  164.6882 C.ar    1  UNL1        0.0043
      2 C         142.5733  139.7158  166.1559 C.ar    1  UNL1       -0.0011
      3 C         141.9962  140.7027  167.1269 C.ar    1  UNL1        0.0104
      4 C         141.9870  140.3931  168.5946 C.ar    1  UNL1        0.0585
      5 CL        142.5547  139.0967  169.0913 Cl      1  UNL1       -0.0822
      6 C         141.4099  141.3801  169.5657 C.ar    1  UNL1        0.0228
      7 C         140.8421  142.6767  169.0690 C.ar    1  UNL1        0.0585
      8 CL        140.2650  143.6636  170.0400 Cl      1  UNL1       -0.0822
      9 C         140.8514  142.9862  167.6013 C.ar    1  UNL1        0.0114
     10 C         141.4285  141.9992  166.6303 C.ar    1  UNL1        0.0016
     11 C         141.4377  142.3088  165.1625 C.ar    1  UNL1       -0.0002
     12 C         140.8700  143.6053  164.6659 C.ar    1  UNL1        0.0038
     13 C         140.8793  143.9148  163.1983 C.ar    1  UNL1        0.0714
     14 C         141.4564  142.9279  162.2272 C.ar    1  UNL1        0.0038
     15 C         142.0241  141.6314  162.7239 C.ar    1  UNL1       -0.0003
     16 C         142.0148  141.3219  164.1915 C.ar    1  UNL1       -0.0017
     17 C         140.3115  145.2114  162.7016 C.3     1  UNL1        0.4186
     18 F         139.7437  146.5079  162.2048 F       1  UNL1       -0.1659
     19 F         141.2718  145.1905  161.5495 F       1  UNL1       -0.1659
     20 F         139.3512  145.2323  163.8537 F       1  UNL1       -0.1659
     21 C         143.1597  139.0383  163.7172 C.3     1  UNL1        0.1341
     22 O         144.5735  139.1941  163.2406 O.3     1  UNL1       -0.3800
     23 H         144.9695  139.9773  163.6536 H       1  UNL1        0.2108
     24 C         142.3231  137.8957  163.2228 C.3     1  UNL1        0.0511
     25 C         141.0025  138.1632  162.5637 C.3     1  UNL1        0.0749
     26 N         139.7367  138.0964  163.3658 N.3     1  UNL1       -0.2726
     27 C         139.7848  137.6974  164.8110 C.3     1  UNL1        0.0721
     28 C         138.5187  137.3467  165.5348 C.3     1  UNL1        0.0173
     29 C         138.7395  139.4280  167.0740 C.3     1  UNL1        0.0000
     30 C         137.9052  138.3265  166.4906 C.3     1  UNL1        0.0014
     31 C         138.4229  138.4285  162.7228 C.3     1  UNL1        0.0721
     32 C         137.9820  139.8579  162.6124 C.3     1  UNL1        0.0173
     33 C         138.3128  140.8313  163.7047 C.3     1  UNL1        0.0014
     34 C         137.6278  142.1648  163.7538 C.3     1  UNL1        0.0000
@<TRIPOS>BOND
     1    29    30    1
     2    30    28    1
     3    28    27    1
     4    27    26    1
     5    26    31    1
     6    31    32    1
     7    32    33    1
     8    33    34    1
     9    26    25    1
    10    25    24    1
    11    24    21    1
    12    21    22    1
    13    21     1    1
    14     1     2   ar
    15     2     3   ar
    16     3     4   ar
    17     4     5    1
    18     4     6   ar
    19     6     7   ar
    20     7     8    1
    21     7     9   ar
    22     9    10   ar
    23    10    11   ar
    24    11    12   ar
    25    12    13   ar
    26    13    17    1
    27    17    18    1
    28    17    19    1
    29    17    20    1
    30    13    14   ar
    31    14    15   ar
    32    15    16   ar
    33    16     1   ar
    34    10     3   ar
    35    16    11   ar
    36    22    23    1
@<TRIPOS>MOLECULE
*****
 34 36 0 0 0
SMALL
GASTEIGER

@<TRIPOS>ATOM
      1 C         138.9237  139.9368  166.0467 C.ar    1  UNL1        0.0043
      2 C         138.4452  140.6808  164.8354 C.ar    1  UNL1       -0.0011
      3 C         139.1181  141.9570  164.4247 C.ar    1  UNL1        0.0104
      4 C         138.6396  142.7010  163.2133 C.ar    1  UNL1        0.0585
      5 CL        137.4883  142.1689  162.4125 Cl      1  UNL1       -0.0822
      6 C         139.3125  143.9772  162.8027 C.ar    1  UNL1        0.0228
      7 C         140.4638  144.5093  163.6035 C.ar    1  UNL1        0.0585
      8 CL        141.1367  145.7855  163.1929 Cl      1  UNL1       -0.0822
      9 C         140.9423  143.7653  164.8149 C.ar    1  UNL1        0.0114
     10 C         140.2694  142.4891  165.2255 C.ar    1  UNL1        0.0016
     11 C         140.7479  141.7451  166.4370 C.ar    1  UNL1       -0.0002
     12 C         141.8992  142.2773  167.2377 C.ar    1  UNL1        0.0038
     13 C         142.3776  141.5332  168.4491 C.ar    1  UNL1        0.0714
     14 C         141.7048  140.2570  168.8597 C.ar    1  UNL1        0.0038
     15 C         140.5535  139.7249  168.0589 C.ar    1  UNL1       -0.0003
     16 C         140.0750  140.4689  166.8476 C.ar    1  UNL1       -0.0017
     17 C         143.5290  142.0654  169.2499 C.3     1  UNL1        0.4186
     18 F         144.6803  142.5975  170.0507 F       1  UNL1       -0.1659
     19 F         143.9985  142.8444  168.0572 F       1  UNL1       -0.1659
     20 F         143.0595  141.2863  170.4426 F       1  UNL1       -0.1659
     21 C         138.2508  138.6606  166.4573 C.3     1  UNL1        0.1341
     22 O         137.3959  138.6262  167.6895 O.3     1  UNL1       -0.3800
     23 H         137.3845  139.5051  168.0997 H       1  UNL1        0.2108
     24 C         138.4328  137.4188  165.6359 C.3     1  UNL1        0.0511
     25 C         139.7603  137.1271  165.0013 C.3     1  UNL1        0.0749
     26 N         140.0765  137.6716  163.6398 N.3     1  UNL1       -0.2726
     27 C         141.4705  138.1219  163.3174 C.3     1  UNL1        0.0721
     28 C         142.0150  139.3762  163.9340 C.3     1  UNL1        0.0173
     29 C         143.2383  138.3782  165.9973 C.3     1  UNL1        0.0000
     30 C         143.2209  139.3123  164.8238 C.3     1  UNL1        0.0014
     31 C         138.9988  137.7657  162.6008 C.3     1  UNL1        0.0721
     32 C         139.3455  138.1521  161.1935 C.3     1  UNL1        0.0173
     33 C         139.1678  139.5708  160.7398 C.3     1  UNL1        0.0014
     34 C         140.3396  140.5071  160.7289 C.3     1  UNL1        0.0000
@<TRIPOS>BOND
     1    29    30    1
     2    30    28    1
     3    28    27    1
     4    27    26    1
     5    26    31    1
     6    31    32    1
     7    32    33    1
     8    33    34    1
     9    26    25    1
    10    25    24    1
    11    24    21    1
    12    21    22    1
    13    21     1    1
    14     1     2   ar
    15     2     3   ar
    16     3     4   ar
    17     4     5    1
    18     4     6   ar
    19     6     7   ar
    20     7     8    1
    21     7     9   ar
    22     9    10   ar
    23    10    11   ar
    24    11    12   ar
    25    12    13   ar
    26    13    17    1
    27    17    18    1
    28    17    19    1
    29    17    20    1
    30    13    14   ar
    31    14    15   ar
    32    15    16   ar
    33    16     1   ar
    34    10     3   ar
    35    16    11   ar
    36    22    23    1
@<TRIPOS>MOLECULE
*****
 34 36 0 0 0
SMALL
GASTEIGER

@<TRIPOS>ATOM
      1 C         140.4401  143.0298  165.3789 C.ar    1  UNL1        0.0043
      2 C         140.2896  142.9766  166.8704 C.ar    1  UNL1       -0.0011
      3 C         140.9090  141.8528  167.6471 C.ar    1  UNL1        0.0104
      4 C         140.7585  141.7997  169.1387 C.ar    1  UNL1        0.0585
      5 CL        139.9886  142.8704  169.8534 Cl      1  UNL1       -0.0822
      6 C         141.3778  140.6758  169.9154 C.ar    1  UNL1        0.0228
      7 C         142.1477  139.6051  169.2006 C.ar    1  UNL1        0.0585
      8 CL        142.7671  138.4812  169.9773 Cl      1  UNL1       -0.0822
      9 C         142.2982  139.6582  167.7091 C.ar    1  UNL1        0.0114
     10 C         141.6788  140.7821  166.9324 C.ar    1  UNL1        0.0016
     11 C         141.8294  140.8352  165.4409 C.ar    1  UNL1       -0.0002
     12 C         142.5992  139.7645  164.7262 C.ar    1  UNL1        0.0038
     13 C         142.7497  139.8177  163.2347 C.ar    1  UNL1        0.0714
     14 C         142.1303  140.9415  162.4580 C.ar    1  UNL1        0.0038
     15 C         141.3605  142.0122  163.1727 C.ar    1  UNL1       -0.0003
     16 C         141.2100  141.9590  164.6641 C.ar    1  UNL1       -0.0017
     17 C         143.5196  138.7469  162.5199 C.3     1  UNL1        0.4186
     18 F         144.2895  137.6763  161.8052 F       1  UNL1       -0.1659
     19 F         144.6723  138.9495  163.4581 F       1  UNL1       -0.1659
     20 F         142.3669  138.5443  161.5817 F       1  UNL1       -0.1659
     21 C         139.8207  144.1536  164.6022 C.3     1  UNL1        0.1341
     22 O         140.6661  145.3062  164.1473 O.3     1  UNL1       -0.3800
     23 H         141.5820  145.1692  164.4360 H       1  UNL1        0.2108
     24 C         138.3559  144.1249  164.2803 C.3     1  UNL1        0.0511
     25 C         137.9010  143.8294  162.8819 C.3     1  UNL1        0.0749
     26 N         137.8447  142.4115  162.3954 N.3     1  UNL1       -0.2726
     27 C         138.3522  142.0676  161.0264 C.3     1  UNL1        0.0721
     28 C         138.1455  140.6882  160.4745 C.3     1  UNL1        0.0173
     29 C         139.0949  138.3007  160.8596 C.3     1  UNL1        0.0000
     30 C         139.2916  139.7219  160.4222 C.3     1  UNL1        0.0014
     31 C         137.2808  141.3377  163.2779 C.3     1  UNL1        0.0721
     32 C         138.1937  140.3258  163.9045 C.3     1  UNL1        0.0173
     33 C         138.1485  140.0900  165.3852 C.3     1  UNL1        0.0014
     34 C         138.6520  138.7968  165.9545 C.3     1  UNL1        0.0000
@<TRIPOS>BOND
     1    29    30    1
     2    30    28    1
     3    28    27    1
     4    27    26    1
     5    26    31    1
     6    31    32    1
     7    32    33    1
     8    33    34    1
     9    26    25    1
    10    25    24    1
    11    24    21    1
    12    21    22    1
    13    21     1    1
    14     1     2   ar
    15     2     3   ar
    16     3     4   ar
    17     4     5    1
    18     4     6   ar
    19     6     7   ar
    20     7     8    1
    21     7     9   ar
    22     9    10   ar
    23    10    11   ar
    24    11    12   ar
    25    12    13   ar
    26    13    17    1
    27    17    18    1
    28    17    19    1
    29    17    20    1
    30    13    14   ar
    31    14    15   ar
    32    15    16   ar
    33    16     1   ar
    34    10     3   ar
    35    16    11   ar
    36    22    23    1
