@<TRIPOS>MOLECULE
*****
 24 26 0 0 0
SMALL
GASTEIGER

@<TRIPOS>ATOM
      1 C         139.5009  140.2929  164.7853 C.3     1  UNL1        0.1303
      2 O         138.6566  139.0681  164.9773 O.3     1  UNL1       -0.3457
      3 C         138.4832  138.8512  166.4514 C.3     1  UNL1        0.1690
      4 C         139.2203  139.9420  167.1703 C.ar    1  UNL1        0.0065
      5 C         139.3999  140.2390  168.6296 C.ar    1  UNL1        0.0082
      6 C         140.2086  141.4271  169.0591 C.ar    1  UNL1        0.0682
      7 C         140.8375  142.3182  168.0293 C.ar    1  UNL1        0.0100
      8 C         140.6578  142.0212  166.5701 C.ar    1  UNL1       -0.0013
      9 C         139.8492  140.8331  166.1406 C.ar    1  UNL1        0.0043
     10 C         139.3211  139.9959  163.3259 C.ar    1  UNL1        0.0060
     11 C         137.9473  139.9982  162.7237 C.ar    1  UNL1        0.0006
     12 C         137.7676  139.7012  161.2645 C.ar    1  UNL1        0.0294
     13 C         138.9616  139.4018  160.4075 C.ar    1  UNL1        0.1401
     14 F         138.7819  139.1048  158.9481 F       1  UNL1       -0.2042
     15 C         140.3354  139.3995  161.0097 C.ar    1  UNL1        0.0294
     16 C         140.5152  139.6965  162.4689 C.ar    1  UNL1        0.0006
     17 C         140.3883  141.7241  170.5184 C.1     1  UNL1        0.1004
     18 N         140.5680  142.0211  171.9776 N.1     1  UNL1       -0.1908
     19 C         140.3075  141.4557  164.2881 C.3     1  UNL1        0.0372
     20 C         139.6157  142.6853  163.7785 C.3     1  UNL1        0.0204
     21 C         140.1921  143.4446  162.6204 C.3     1  UNL1        0.0723
     22 C         139.9148  145.9574  162.0214 C.3     1  UNL1        0.0897
     23 N         140.6086  144.8751  162.7943 N.3     1  UNL1       -0.2703
     24 C         141.7188  145.2234  163.7410 C.3     1  UNL1        0.0897
@<TRIPOS>BOND
     1    22    23    1
     2    23    24    1
     3    23    21    1
     4    21    20    1
     5    20    19    1
     6    19     1    1
     7     1    10    1
     8    10    11   ar
     9    11    12   ar
    10    12    13   ar
    11    13    14    1
    12    13    15   ar
    13    15    16   ar
    14     1     2    1
    15     2     3    1
    16     3     4    1
    17     4     5   ar
    18     5     6   ar
    19     6    17    1
    20    17    18    3
    21     6     7   ar
    22     7     8   ar
    23     8     9   ar
    24     9     1    1
    25    16    10   ar
    26     9     4   ar
@<TRIPOS>MOLECULE
*****
 24 26 0 0 0
SMALL
GASTEIGER

@<TRIPOS>ATOM
      1 C         139.4938  140.8706  164.6154 C.3     1  UNL1        0.1303
      2 O         139.9940  142.1861  164.0967 O.3     1  UNL1       -0.3457
      3 C         140.4478  143.0043  165.2691 C.3     1  UNL1        0.1690
      4 C         140.2280  142.1945  166.5124 C.ar    1  UNL1        0.0065
      5 C         140.4886  142.4875  167.9602 C.ar    1  UNL1        0.0082
      6 C         140.1596  141.4617  169.0040 C.ar    1  UNL1        0.0682
      7 C         139.5700  140.1430  168.6000 C.ar    1  UNL1        0.0100
      8 C         139.3093  139.8500  167.1522 C.ar    1  UNL1       -0.0013
      9 C         139.6384  140.8757  166.1084 C.ar    1  UNL1        0.0043
     10 C         139.2331  140.5776  163.1675 C.ar    1  UNL1        0.0060
     11 C         137.8449  140.2434  162.7080 C.ar    1  UNL1        0.0006
     12 C         137.5843  139.9504  161.2602 C.ar    1  UNL1        0.0294
     13 C         138.7119  139.9917  160.2719 C.ar    1  UNL1        0.1401
     14 F         138.4512  139.6988  158.8240 F       1  UNL1       -0.2042
     15 C         140.1001  140.3260  160.7314 C.ar    1  UNL1        0.0294
     16 C         140.3607  140.6189  162.1792 C.ar    1  UNL1        0.0006
     17 C         140.4202  141.7547  170.4519 C.1     1  UNL1        0.1004
     18 N         140.6809  142.0476  171.8997 N.1     1  UNL1       -0.1908
     19 C         138.9390  139.4938  164.8314 C.3     1  UNL1        0.0372
     20 C         139.5824  138.3131  164.1664 C.3     1  UNL1        0.0204
     21 C         140.7467  137.6277  164.8179 C.3     1  UNL1        0.0723
     22 C         142.8405  138.4137  163.4957 C.3     1  UNL1        0.0897
     23 N         142.1031  138.2677  164.7937 N.3     1  UNL1       -0.2703
     24 C         142.7221  138.7618  166.0676 C.3     1  UNL1        0.0897
@<TRIPOS>BOND
     1    22    23    1
     2    23    24    1
     3    23    21    1
     4    21    20    1
     5    20    19    1
     6    19     1    1
     7     1    10    1
     8    10    11   ar
     9    11    12   ar
    10    12    13   ar
    11    13    14    1
    12    13    15   ar
    13    15    16   ar
    14     1     2    1
    15     2     3    1
    16     3     4    1
    17     4     5   ar
    18     5     6   ar
    19     6    17    1
    20    17    18    3
    21     6     7   ar
    22     7     8   ar
    23     8     9   ar
    24     9     1    1
    25    16    10   ar
    26     9     4   ar
@<TRIPOS>MOLECULE
*****
 24 26 0 0 0
SMALL
GASTEIGER

@<TRIPOS>ATOM
      1 C         139.6571  140.1076  164.8809 C.3     1  UNL1        0.1303
      2 O         138.6714  138.9951  165.0825 O.3     1  UNL1       -0.3457
      3 C         138.4030  138.8746  166.5533 C.3     1  UNL1        0.1690
      4 C         139.2227  139.9127  167.2608 C.ar    1  UNL1        0.0065
      5 C         139.3635  140.2624  168.7126 C.ar    1  UNL1        0.0082
      6 C         140.2794  141.3743  169.1308 C.ar    1  UNL1        0.0682
      7 C         141.0545  142.1363  168.0971 C.ar    1  UNL1        0.0100
      8 C         140.9138  141.7866  166.6453 C.ar    1  UNL1       -0.0013
      9 C         139.9979  140.6747  166.2271 C.ar    1  UNL1        0.0043
     10 C         139.5163  139.7578  163.4290 C.ar    1  UNL1        0.0060
     11 C         139.7706  138.3533  162.9679 C.ar    1  UNL1        0.0006
     12 C         139.6298  138.0035  161.5161 C.ar    1  UNL1        0.0294
     13 C         139.2347  139.0582  160.5254 C.ar    1  UNL1        0.1401
     14 F         139.0939  138.7083  159.0736 F       1  UNL1       -0.2042
     15 C         138.9804  140.4627  160.9866 C.ar    1  UNL1        0.0294
     16 C         139.1212  140.8125  162.4384 C.ar    1  UNL1        0.0006
     17 C         140.4202  141.7241  170.5826 C.1     1  UNL1        0.1004
     18 N         140.5610  142.0738  172.0344 N.1     1  UNL1       -0.1908
     19 C         140.6134  141.1470  164.3758 C.3     1  UNL1        0.0372
     20 C         142.0196  140.7634  164.0212 C.3     1  UNL1        0.0204
     21 C         142.9632  141.7939  163.4757 C.3     1  UNL1        0.0723
     22 C         145.5156  141.4736  163.8393 C.3     1  UNL1        0.0897
     23 N         144.2212  142.1283  164.2211 N.3     1  UNL1       -0.2703
     24 C         144.1847  143.1173  165.3483 C.3     1  UNL1        0.0897
@<TRIPOS>BOND
     1    22    23    1
     2    23    24    1
     3    23    21    1
     4    21    20    1
     5    20    19    1
     6    19     1    1
     7     1    10    1
     8    10    11   ar
     9    11    12   ar
    10    12    13   ar
    11    13    14    1
    12    13    15   ar
    13    15    16   ar
    14     1     2    1
    15     2     3    1
    16     3     4    1
    17     4     5   ar
    18     5     6   ar
    19     6    17    1
    20    17    18    3
    21     6     7   ar
    22     7     8   ar
    23     8     9   ar
    24     9     1    1
    25    16    10   ar
    26     9     4   ar
@<TRIPOS>MOLECULE
*****
 24 26 0 0 0
SMALL
GASTEIGER

@<TRIPOS>ATOM
      1 C         140.4305  142.6738  165.2971 C.3     1  UNL1        0.1303
      2 O         139.4858  143.7100  165.8299 O.3     1  UNL1       -0.3457
      3 C         139.3073  144.7609  164.7745 C.3     1  UNL1        0.1690
      4 C         140.1416  144.3741  163.5895 C.ar    1  UNL1        0.0065
      5 C         140.3588  145.0299  162.2580 C.ar    1  UNL1        0.0082
      6 C         141.2703  144.3957  161.2496 C.ar    1  UNL1        0.0682
      7 C         141.9645  143.1059  161.5725 C.ar    1  UNL1        0.0100
      8 C         141.7472  142.4501  162.9040 C.ar    1  UNL1       -0.0013
      9 C         140.8358  143.0843  163.9124 C.ar    1  UNL1        0.0043
     10 C         140.2132  142.0181  166.6286 C.ar    1  UNL1        0.0060
     11 C         139.6742  140.6200  166.6970 C.ar    1  UNL1        0.0006
     12 C         139.4568  139.9642  168.0284 C.ar    1  UNL1        0.0294
     13 C         139.7785  140.7066  169.2915 C.ar    1  UNL1        0.1401
     14 F         139.5612  140.0509  170.6230 F       1  UNL1       -0.2042
     15 C         140.3175  142.1048  169.2231 C.ar    1  UNL1        0.0294
     16 C         140.5349  142.7605  167.8917 C.ar    1  UNL1        0.0006
     17 C         141.4876  145.0515  159.9181 C.1     1  UNL1        0.1004
     18 N         141.7049  145.7072  158.5866 N.1     1  UNL1       -0.1908
     19 C         141.3297  141.5006  165.0426 C.3     1  UNL1        0.0372
     20 C         142.7239  141.4902  165.5960 C.3     1  UNL1        0.0204
     21 C         143.6356  140.3338  165.3105 C.3     1  UNL1        0.0723
     22 C         145.5750  141.2679  163.8558 C.3     1  UNL1        0.0897
     23 N         144.4388  140.3069  164.0439 N.3     1  UNL1       -0.2703
     24 C         144.1057  139.3191  162.9654 C.3     1  UNL1        0.0897
@<TRIPOS>BOND
     1    22    23    1
     2    23    24    1
     3    23    21    1
     4    21    20    1
     5    20    19    1
     6    19     1    1
     7     1    10    1
     8    10    11   ar
     9    11    12   ar
    10    12    13   ar
    11    13    14    1
    12    13    15   ar
    13    15    16   ar
    14     1     2    1
    15     2     3    1
    16     3     4    1
    17     4     5   ar
    18     5     6   ar
    19     6    17    1
    20    17    18    3
    21     6     7   ar
    22     7     8   ar
    23     8     9   ar
    24     9     1    1
    25    16    10   ar
    26     9     4   ar
@<TRIPOS>MOLECULE
*****
 24 26 0 0 0
SMALL
GASTEIGER

@<TRIPOS>ATOM
      1 C         141.3721  142.2322  166.0659 C.3     1  UNL1        0.1303
      2 O         142.8576  142.3393  165.8876 O.3     1  UNL1       -0.3457
      3 C         143.1224  143.3191  164.7832 C.3     1  UNL1        0.1690
      4 C         141.8006  143.8176  164.2789 C.ar    1  UNL1        0.0065
      5 C         141.4422  144.7964  163.2003 C.ar    1  UNL1        0.0082
      6 C         140.0021  145.1035  162.9145 C.ar    1  UNL1        0.0682
      7 C         138.9203  144.4317  163.7073 C.ar    1  UNL1        0.0100
      8 C         139.2787  143.4528  164.7859 C.ar    1  UNL1       -0.0013
      9 C         140.7188  143.1458  165.0717 C.ar    1  UNL1        0.0043
     10 C         141.7306  141.2533  167.1446 C.ar    1  UNL1        0.0060
     11 C         141.3236  141.5188  168.5637 C.ar    1  UNL1        0.0006
     12 C         141.6820  140.5400  169.6423 C.ar    1  UNL1        0.0294
     13 C         142.4473  139.2957  169.3018 C.ar    1  UNL1        0.1401
     14 F         142.8058  138.3169  170.3805 F       1  UNL1       -0.2042
     15 C         142.8543  139.0302  167.8827 C.ar    1  UNL1        0.0294
     16 C         142.4959  140.0090  166.8041 C.ar    1  UNL1        0.0006
     17 C         139.6436  146.0823  161.8358 C.1     1  UNL1        0.1004
     18 N         139.2852  147.0611  160.7572 N.1     1  UNL1       -0.1908
     19 C         139.9616  141.9204  166.4697 C.3     1  UNL1        0.0372
     20 C         139.4278  140.5270  166.3157 C.3     1  UNL1        0.0204
     21 C         138.4357  140.2192  165.2337 C.3     1  UNL1        0.0723
     22 C         137.9381  139.7945  162.7193 C.3     1  UNL1        0.0897
     23 N         138.9135  139.8649  163.8567 N.3     1  UNL1       -0.2703
     24 C         140.3668  139.5811  163.6170 C.3     1  UNL1        0.0897
@<TRIPOS>BOND
     1    22    23    1
     2    23    24    1
     3    23    21    1
     4    21    20    1
     5    20    19    1
     6    19     1    1
     7     1    10    1
     8    10    11   ar
     9    11    12   ar
    10    12    13   ar
    11    13    14    1
    12    13    15   ar
    13    15    16   ar
    14     1     2    1
    15     2     3    1
    16     3     4    1
    17     4     5   ar
    18     5     6   ar
    19     6    17    1
    20    17    18    3
    21     6     7   ar
    22     7     8   ar
    23     8     9   ar
    24     9     1    1
    25    16    10   ar
    26     9     4   ar
@<TRIPOS>MOLECULE
*****
 24 26 0 0 0
SMALL
GASTEIGER

@<TRIPOS>ATOM
      1 C         142.0902  139.3304  165.1311 C.3     1  UNL1        0.1303
      2 O         143.2071  138.3914  165.4785 O.3     1  UNL1       -0.3457
      3 C         143.4438  138.4796  166.9571 C.3     1  UNL1        0.1690
      4 C         142.4732  139.4731  167.5235 C.ar    1  UNL1        0.0065
      5 C         142.2430  139.9669  168.9210 C.ar    1  UNL1        0.0082
      6 C         141.1763  140.9865  169.1901 C.ar    1  UNL1        0.0682
      7 C         140.3397  141.5124  168.0615 C.ar    1  UNL1        0.0100
      8 C         140.5699  141.0186  166.6640 C.ar    1  UNL1       -0.0013
      9 C         141.6366  139.9990  166.3950 C.ar    1  UNL1        0.0043
     10 C         142.3204  138.8366  163.7335 C.ar    1  UNL1        0.0060
     11 C         143.6948  138.8921  163.1353 C.ar    1  UNL1        0.0006
     12 C         143.9250  138.3983  161.7378 C.ar    1  UNL1        0.0294
     13 C         142.7808  137.8490  160.9385 C.ar    1  UNL1        0.1401
     14 F         143.0110  137.3552  159.5409 F       1  UNL1       -0.2042
     15 C         141.4063  137.7936  161.5366 C.ar    1  UNL1        0.0294
     16 C         141.1761  138.2873  162.9342 C.ar    1  UNL1        0.0006
     17 C         140.9462  141.4804  170.5877 C.1     1  UNL1        0.1004
     18 N         140.7160  141.9742  171.9852 N.1     1  UNL1       -0.1908
     19 C         141.0214  140.1662  164.4915 C.3     1  UNL1        0.0372
     20 C         141.3896  141.4217  163.7578 C.3     1  UNL1        0.0204
     21 C         140.3204  142.2601  163.1223 C.3     1  UNL1        0.0723
     22 C         137.9267  142.5683  164.0842 C.3     1  UNL1        0.0897
     23 N         139.3534  143.0198  163.9813 N.3     1  UNL1       -0.2703
     24 C         139.8132  144.2310  164.7374 C.3     1  UNL1        0.0897
@<TRIPOS>BOND
     1    22    23    1
     2    23    24    1
     3    23    21    1
     4    21    20    1
     5    20    19    1
     6    19     1    1
     7     1    10    1
     8    10    11   ar
     9    11    12   ar
    10    12    13   ar
    11    13    14    1
    12    13    15   ar
    13    15    16   ar
    14     1     2    1
    15     2     3    1
    16     3     4    1
    17     4     5   ar
    18     5     6   ar
    19     6    17    1
    20    17    18    3
    21     6     7   ar
    22     7     8   ar
    23     8     9   ar
    24     9     1    1
    25    16    10   ar
    26     9     4   ar
@<TRIPOS>MOLECULE
*****
 24 26 0 0 0
SMALL
GASTEIGER

@<TRIPOS>ATOM
      1 C         141.0746  140.3776  165.6906 C.3     1  UNL1        0.1303
      2 O         141.8116  139.3880  166.5436 O.3     1  UNL1       -0.3457
      3 C         142.5075  138.4196  165.6338 C.3     1  UNL1        0.1690
      4 C         142.2007  138.8106  164.2186 C.ar    1  UNL1        0.0065
      5 C         142.6132  138.2210  162.9025 C.ar    1  UNL1        0.0082
      6 C         142.1402  138.8416  161.6215 C.ar    1  UNL1        0.0682
      7 C         141.2546  140.0518  161.6566 C.ar    1  UNL1        0.0100
      8 C         140.8420  140.6414  162.9727 C.ar    1  UNL1       -0.0013
      9 C         141.3151  140.0207  164.2537 C.ar    1  UNL1        0.0043
     10 C         140.6621  140.9672  167.0068 C.ar    1  UNL1        0.0060
     11 C         140.9369  142.4122  167.3004 C.ar    1  UNL1        0.0006
     12 C         140.5244  143.0018  168.6166 C.ar    1  UNL1        0.0294
     13 C         139.8370  142.1463  169.6391 C.ar    1  UNL1        0.1401
     14 F         139.4245  142.7358  170.9553 F       1  UNL1       -0.2042
     15 C         139.5622  140.7012  169.3454 C.ar    1  UNL1        0.0294
     16 C         139.9747  140.1116  168.0293 C.ar    1  UNL1        0.0006
     17 C         142.5527  138.2521  160.3053 C.1     1  UNL1        0.1004
     18 N         142.9652  137.6626  158.9891 N.1     1  UNL1       -0.1908
     19 C         140.2514  141.4904  165.1128 C.3     1  UNL1        0.0372
     20 C         138.7538  141.4166  165.1571 C.3     1  UNL1        0.0204
     21 C         137.9306  142.4570  164.4573 C.3     1  UNL1        0.0723
     22 C         138.5851  144.8009  165.3670 C.3     1  UNL1        0.0897
     23 N         138.4924  143.8288  164.2284 N.3     1  UNL1       -0.2703
     24 C         138.9615  144.2286  162.8608 C.3     1  UNL1        0.0897
@<TRIPOS>BOND
     1    22    23    1
     2    23    24    1
     3    23    21    1
     4    21    20    1
     5    20    19    1
     6    19     1    1
     7     1    10    1
     8    10    11   ar
     9    11    12   ar
    10    12    13   ar
    11    13    14    1
    12    13    15   ar
    13    15    16   ar
    14     1     2    1
    15     2     3    1
    16     3     4    1
    17     4     5   ar
    18     5     6   ar
    19     6    17    1
    20    17    18    3
    21     6     7   ar
    22     7     8   ar
    23     8     9   ar
    24     9     1    1
    25    16    10   ar
    26     9     4   ar
@<TRIPOS>MOLECULE
*****
 24 26 0 0 0
SMALL
GASTEIGER

@<TRIPOS>ATOM
      1 C         140.3947  139.4497  164.5679 C.3     1  UNL1        0.1303
      2 O         141.8572  139.2815  164.2802 O.3     1  UNL1       -0.3457
      3 C         142.6037  139.4286  165.5729 C.3     1  UNL1        0.1690
      4 C         141.6026  139.6877  166.6595 C.ar    1  UNL1        0.0065
      5 C         141.7579  139.9134  168.1342 C.ar    1  UNL1        0.0082
      6 C         140.5478  140.1522  168.9878 C.ar    1  UNL1        0.0682
      7 C         139.1825  140.1653  168.3667 C.ar    1  UNL1        0.0100
      8 C         139.0273  139.9395  166.8919 C.ar    1  UNL1       -0.0013
      9 C         140.2373  139.7008  166.0383 C.ar    1  UNL1        0.0043
     10 C         140.2395  139.2240  163.0931 C.ar    1  UNL1        0.0060
     11 C         139.2952  138.1723  162.5906 C.ar    1  UNL1        0.0006
     12 C         139.1400  137.9466  161.1159 C.ar    1  UNL1        0.0294
     13 C         139.9291  138.7724  160.1436 C.ar    1  UNL1        0.1401
     14 F         139.7739  138.5466  158.6688 F       1  UNL1       -0.2042
     15 C         140.8733  139.8240  160.6461 C.ar    1  UNL1        0.0294
     16 C         141.0286  140.0498  162.1208 C.ar    1  UNL1        0.0006
     17 C         140.7030  140.3780  170.4626 C.1     1  UNL1        0.1004
     18 N         140.8582  140.6037  171.9374 N.1     1  UNL1       -0.1908
     19 C         138.8997  139.5707  164.5472 C.3     1  UNL1        0.0372
     20 C         138.2582  140.9211  164.4243 C.3     1  UNL1        0.0204
     21 C         137.4704  141.2681  163.1959 C.3     1  UNL1        0.0723
     22 C         138.2218  142.3891  160.9758 C.3     1  UNL1        0.0897
     23 N         137.8070  142.5024  162.4129 N.3     1  UNL1       -0.2703
     24 C         137.7290  143.8501  163.0669 C.3     1  UNL1        0.0897
@<TRIPOS>BOND
     1    22    23    1
     2    23    24    1
     3    23    21    1
     4    21    20    1
     5    20    19    1
     6    19     1    1
     7     1    10    1
     8    10    11   ar
     9    11    12   ar
    10    12    13   ar
    11    13    14    1
    12    13    15   ar
    13    15    16   ar
    14     1     2    1
    15     2     3    1
    16     3     4    1
    17     4     5   ar
    18     5     6   ar
    19     6    17    1
    20    17    18    3
    21     6     7   ar
    22     7     8   ar
    23     8     9   ar
    24     9     1    1
    25    16    10   ar
    26     9     4   ar
@<TRIPOS>MOLECULE
*****
 24 26 0 0 0
SMALL
GASTEIGER

@<TRIPOS>ATOM
      1 C         142.1099  140.2612  164.9868 C.3     1  UNL1        0.1303
      2 O         142.4390  141.6170  164.4359 O.3     1  UNL1       -0.3457
      3 C         142.2889  142.6166  165.5442 C.3     1  UNL1        0.1690
      4 C         141.8669  141.8786  166.7801 C.ar    1  UNL1        0.0065
      5 C         141.5692  142.3441  168.1745 C.ar    1  UNL1        0.0082
      6 C         141.1607  141.3539  169.2245 C.ar    1  UNL1        0.0682
      7 C         141.0501  139.8981  168.8801 C.ar    1  UNL1        0.0100
      8 C         141.3479  139.4327  167.4856 C.ar    1  UNL1       -0.0013
      9 C         141.7563  140.4229  166.4356 C.ar    1  UNL1        0.0043
     10 C         142.4076  139.7958  163.5923 C.ar    1  UNL1        0.0060
     11 C         143.5451  138.8500  163.3441 C.ar    1  UNL1        0.0006
     12 C         143.8430  138.3845  161.9497 C.ar    1  UNL1        0.0294
     13 C         143.0033  138.8649  160.8033 C.ar    1  UNL1        0.1401
     14 F         143.3011  138.3994  159.4088 F       1  UNL1       -0.2042
     15 C         141.8658  139.8107  161.0515 C.ar    1  UNL1        0.0294
     16 C         141.5680  140.2761  162.4459 C.ar    1  UNL1        0.0006
     17 C         140.8629  141.8193  170.6191 C.1     1  UNL1        0.1004
     18 N         140.5652  142.2848  172.0136 N.1     1  UNL1       -0.1908
     19 C         141.8429  138.8082  165.2462 C.3     1  UNL1        0.0372
     20 C         140.8119  138.0788  164.4368 C.3     1  UNL1        0.0204
     21 C         139.5000  137.7011  165.0583 C.3     1  UNL1        0.0723
     22 C         138.3268  139.9781  164.6238 C.3     1  UNL1        0.0897
     23 N         138.5378  138.7692  165.4864 N.3     1  UNL1       -0.2703
     24 C         137.7866  138.6284  166.7771 C.3     1  UNL1        0.0897
@<TRIPOS>BOND
     1    22    23    1
     2    23    24    1
     3    23    21    1
     4    21    20    1
     5    20    19    1
     6    19     1    1
     7     1    10    1
     8    10    11   ar
     9    11    12   ar
    10    12    13   ar
    11    13    14    1
    12    13    15   ar
    13    15    16   ar
    14     1     2    1
    15     2     3    1
    16     3     4    1
    17     4     5   ar
    18     5     6   ar
    19     6    17    1
    20    17    18    3
    21     6     7   ar
    22     7     8   ar
    23     8     9   ar
    24     9     1    1
    25    16    10   ar
    26     9     4   ar
