@<TRIPOS>MOLECULE
*****
 35 38 0 0 0
SMALL
GASTEIGER

@<TRIPOS>ATOM
      1 C         142.5656  138.9206  161.5115 C.ar    1  UNL1        0.0393
      2 C         143.6684  139.0803  162.5156 C.ar    1  UNL1        0.0779
      3 N         143.1164  138.7399  163.8682 N.ar    1  UNL1       -0.3177
      4 C         141.6725  138.3699  163.7000 C.ar    1  UNL1        0.0604
      5 C         140.6238  137.9458  164.6850 C.ar    1  UNL1        0.0172
      6 C         139.2346  137.6333  164.2134 C.ar    1  UNL1        0.0015
      7 C         138.8941  137.7450  162.7568 C.ar    1  UNL1        0.0001
      8 C         139.9429  138.1691  161.7719 C.ar    1  UNL1        0.0015
      9 C         141.3321  138.4816  162.2435 C.ar    1  UNL1        0.0188
     10 N         143.0986  138.0425  159.1250 N.2     1  UNL1       -0.1636
     11 C         142.6767  139.1583  160.0346 C.2     1  UNL1        0.1204
     12 N         143.2097  138.2802  157.6482 N.pl3   1  UNL1       -0.1361
     13 H         143.5070  139.1563  157.3115 H       1  UNL1        0.1966
     14 S         142.8679  137.1829  156.6842 S.O2    1  UNL1        0.0877
     15 O         141.4615  137.1633  157.2052 O.2     1  UNL1       -0.1487
     16 O         144.2745  137.2026  156.1632 O.2     1  UNL1       -0.1487
     17 C         141.5010  132.7938  152.8284 C.3     1  UNL1        0.0310
     18 C         141.8428  133.8911  153.7924 C.ar    1  UNL1       -0.0218
     19 C         142.0350  135.2932  153.2953 C.ar    1  UNL1       -0.0029
     20 C         142.3767  136.3905  154.2591 C.ar    1  UNL1        0.0199
     21 C         142.5262  136.0857  155.7203 C.ar    1  UNL1        0.1266
     22 C         142.3340  134.6836  156.2174 C.ar    1  UNL1        0.0199
     23 C         141.9922  133.5862  155.2534 C.ar    1  UNL1       -0.0029
     24 C         143.8752  138.7651  165.1619 C.3     1  UNL1        0.1920
     25 C         143.3118  139.4907  166.3478 C.2     1  UNL1        0.2492
     26 O         143.1257  138.7691  167.6496 O.2     1  UNL1       -0.2727
     27 N         142.9346  140.9378  166.2319 N.am    1  UNL1       -0.2817
     28 H         143.0567  141.4115  165.3775 H       1  UNL1        0.1549
     29 C         142.3713  141.6633  167.4178 C.ar    1  UNL1        0.0610
     30 C         143.2821  142.1262  168.5160 C.ar    1  UNL1        0.0155
     31 C         142.7187  142.8517  169.7018 C.ar    1  UNL1        0.0013
     32 C         141.2444  143.1143  169.7895 C.ar    1  UNL1        0.0009
     33 C         140.3336  142.6514  168.6913 C.ar    1  UNL1        0.0126
     34 C         140.8970  141.9259  167.5054 C.ar    1  UNL1        0.0711
     35 CL        139.9862  141.4630  166.4071 Cl      1  UNL1       -0.0810
@<TRIPOS>BOND
     1    17    18    1
     2    18    19   ar
     3    19    20   ar
     4    20    21   ar
     5    21    14    1
     6    14    15    2
     7    14    16    2
     8    14    12    1
     9    12    10    1
    10    10    11    2
    11    11     1    1
    12     1     2   ar
    13     2     3   ar
    14     3    24    1
    15    24    25    1
    16    25    26    2
    17    25    27   am
    18    27    29    1
    19    29    30   ar
    20    30    31   ar
    21    31    32   ar
    22    32    33   ar
    23    33    34   ar
    24    34    35    1
    25     3     4   ar
    26     4     5   ar
    27     5     6   ar
    28     6     7   ar
    29     7     8   ar
    30     8     9   ar
    31    21    22   ar
    32    22    23   ar
    33    23    18   ar
    34     9     1   ar
    35    34    29   ar
    36     9     4   ar
    37    12    13    1
    38    27    28    1
@<TRIPOS>MOLECULE
*****
 35 38 0 0 0
SMALL
GASTEIGER

@<TRIPOS>ATOM
      1 C         142.7778  139.0723  161.5219 C.ar    1  UNL1        0.0393
      2 C         142.2777  138.1781  162.6176 C.ar    1  UNL1        0.0779
      3 N         142.9048  138.6267  163.9043 N.ar    1  UNL1       -0.3177
      4 C         143.7924  139.7980  163.6038 C.ar    1  UNL1        0.0604
      5 C         144.6619  140.6493  164.4808 C.ar    1  UNL1        0.0172
      6 C         145.4529  141.7761  163.8853 C.ar    1  UNL1        0.0015
      7 C         145.3744  142.0515  162.4129 C.ar    1  UNL1        0.0001
      8 C         144.5049  141.2001  161.5359 C.ar    1  UNL1        0.0015
      9 C         143.7139  140.0734  162.1314 C.ar    1  UNL1        0.0188
     10 N         143.4363  138.5773  159.0578 N.2     1  UNL1       -0.1636
     11 C         142.4068  138.9813  160.0713 C.2     1  UNL1        0.1204
     12 N         143.0654  138.4863  157.6073 N.pl3   1  UNL1       -0.1361
     13 H         143.0576  139.2975  157.0493 H       1  UNL1        0.1966
     14 S         142.7064  137.1595  157.0068 S.O2    1  UNL1        0.0877
     15 O         144.1335  136.9625  156.5888 O.2     1  UNL1       -0.1487
     16 O         141.2793  137.3566  157.4248 O.2     1  UNL1       -0.1487
     17 C         141.2700  131.8521  154.6050 C.3     1  UNL1        0.0310
     18 C         141.6291  133.1790  155.2054 C.ar    1  UNL1       -0.0218
     19 C         142.6461  133.2538  156.3055 C.ar    1  UNL1       -0.0029
     20 C         143.0052  134.5806  156.9060 C.ar    1  UNL1        0.0199
     21 C         142.3474  135.8327  156.4064 C.ar    1  UNL1        0.1266
     22 C         141.3304  135.7578  155.3063 C.ar    1  UNL1        0.0199
     23 C         140.9712  134.4310  154.7058 C.ar    1  UNL1       -0.0029
     24 C         142.6832  138.0118  165.2544 C.3     1  UNL1        0.1920
     25 C         142.3183  138.8791  166.4227 C.2     1  UNL1        0.2492
     26 O         143.2198  138.9431  167.6198 O.2     1  UNL1       -0.2727
     27 N         141.0518  139.6823  166.3938 N.am    1  UNL1       -0.2817
     28 H         140.4600  139.6403  165.6081 H       1  UNL1        0.1549
     29 C         140.6869  140.5494  167.5621 C.ar    1  UNL1        0.0610
     30 C         139.7396  140.0399  168.6075 C.ar    1  UNL1        0.0155
     31 C         139.3748  140.9071  169.7757 C.ar    1  UNL1        0.0013
     32 C         139.9573  142.2839  169.8987 C.ar    1  UNL1        0.0009
     33 C         140.9046  142.7935  168.8533 C.ar    1  UNL1        0.0126
     34 C         141.2695  141.9262  167.6849 C.ar    1  UNL1        0.0711
     35 CL        142.2168  142.4358  166.6396 Cl      1  UNL1       -0.0810
@<TRIPOS>BOND
     1    17    18    1
     2    18    19   ar
     3    19    20   ar
     4    20    21   ar
     5    21    14    1
     6    14    15    2
     7    14    16    2
     8    14    12    1
     9    12    10    1
    10    10    11    2
    11    11     1    1
    12     1     2   ar
    13     2     3   ar
    14     3    24    1
    15    24    25    1
    16    25    26    2
    17    25    27   am
    18    27    29    1
    19    29    30   ar
    20    30    31   ar
    21    31    32   ar
    22    32    33   ar
    23    33    34   ar
    24    34    35    1
    25     3     4   ar
    26     4     5   ar
    27     5     6   ar
    28     6     7   ar
    29     7     8   ar
    30     8     9   ar
    31    21    22   ar
    32    22    23   ar
    33    23    18   ar
    34     9     1   ar
    35    34    29   ar
    36     9     4   ar
    37    12    13    1
    38    27    28    1
@<TRIPOS>MOLECULE
*****
 35 38 0 0 0
SMALL
GASTEIGER

@<TRIPOS>ATOM
      1 C         142.2895  138.0768  160.8294 C.ar    1  UNL1        0.0393
      2 C         143.0131  137.5963  159.6065 C.ar    1  UNL1        0.0779
      3 N         142.1828  137.9491  158.4082 N.ar    1  UNL1       -0.3177
      4 C         140.9461  138.6477  158.8904 C.ar    1  UNL1        0.0604
      5 C         139.7685  139.2221  158.1602 C.ar    1  UNL1        0.0172
      6 C         138.6568  139.8755  158.9265 C.ar    1  UNL1        0.0015
      7 C         138.7228  139.9544  160.4230 C.ar    1  UNL1        0.0001
      8 C         139.9004  139.3800  161.1532 C.ar    1  UNL1        0.0015
      9 C         141.0121  138.7266  160.3869 C.ar    1  UNL1        0.0188
     10 N         143.2681  139.1306  162.9933 N.2     1  UNL1       -0.1636
     11 C         142.7607  137.9328  162.2462 C.2     1  UNL1        0.1204
     12 N         143.7393  138.9866  164.4101 N.pl3   1  UNL1       -0.1361
     13 H         144.6644  138.7053  164.5950 H       1  UNL1        0.1966
     14 S         142.8008  139.2712  165.5451 S.O2    1  UNL1        0.0877
     15 O         143.4823  138.2215  166.3719 O.2     1  UNL1       -0.1487
     16 O         142.1192  140.3209  164.7181 O.2     1  UNL1       -0.1487
     17 C         139.0464  140.4099  170.0847 C.3     1  UNL1        0.0310
     18 C         139.9850  140.1252  168.9498 C.ar    1  UNL1       -0.0218
     19 C         141.4365  139.8649  169.2242 C.ar    1  UNL1       -0.0029
     20 C         142.3751  139.5802  168.0894 C.ar    1  UNL1        0.0199
     21 C         141.8622  139.5558  166.6800 C.ar    1  UNL1        0.1266
     22 C         140.4107  139.8161  166.4055 C.ar    1  UNL1        0.0199
     23 C         139.4720  140.1008  167.5404 C.ar    1  UNL1       -0.0029
     24 C         142.5285  137.6550  156.9785 C.3     1  UNL1        0.1920
     25 C         143.2495  136.3875  156.6266 C.2     1  UNL1        0.2492
     26 O         144.4571  136.4334  155.7380 O.2     1  UNL1       -0.2727
     27 N         142.7629  135.0741  157.1635 N.am    1  UNL1       -0.2817
     28 H         141.9704  135.0439  157.7467 H       1  UNL1        0.1549
     29 C         143.4839  133.8067  156.8116 C.ar    1  UNL1        0.0610
     30 C         144.4932  133.2300  157.7596 C.ar    1  UNL1        0.0155
     31 C         145.2142  131.9626  157.4077 C.ar    1  UNL1        0.0013
     32 C         144.9259  131.2718  156.1077 C.ar    1  UNL1        0.0009
     33 C         143.9166  131.8485  155.1597 C.ar    1  UNL1        0.0126
     34 C         143.1956  133.1160  155.5117 C.ar    1  UNL1        0.0711
     35 CL        142.1863  133.6927  154.5637 Cl      1  UNL1       -0.0810
@<TRIPOS>BOND
     1    17    18    1
     2    18    19   ar
     3    19    20   ar
     4    20    21   ar
     5    21    14    1
     6    14    15    2
     7    14    16    2
     8    14    12    1
     9    12    10    1
    10    10    11    2
    11    11     1    1
    12     1     2   ar
    13     2     3   ar
    14     3    24    1
    15    24    25    1
    16    25    26    2
    17    25    27   am
    18    27    29    1
    19    29    30   ar
    20    30    31   ar
    21    31    32   ar
    22    32    33   ar
    23    33    34   ar
    24    34    35    1
    25     3     4   ar
    26     4     5   ar
    27     5     6   ar
    28     6     7   ar
    29     7     8   ar
    30     8     9   ar
    31    21    22   ar
    32    22    23   ar
    33    23    18   ar
    34     9     1   ar
    35    34    29   ar
    36     9     4   ar
    37    12    13    1
    38    27    28    1
@<TRIPOS>MOLECULE
*****
 35 38 0 0 0
SMALL
GASTEIGER

@<TRIPOS>ATOM
      1 C         144.0394  142.0607  160.9757 C.ar    1  UNL1        0.0393
      2 C         144.1286  140.6348  161.4328 C.ar    1  UNL1        0.0779
      3 N         144.1451  140.6290  162.9327 N.ar    1  UNL1       -0.3177
      4 C         144.0661  142.0513  163.4026 C.ar    1  UNL1        0.0604
      5 C         144.0451  142.6550  164.7756 C.ar    1  UNL1        0.0172
      6 C         143.9589  144.1436  164.9390 C.ar    1  UNL1        0.0015
      7 C         143.8936  145.0284  163.7296 C.ar    1  UNL1        0.0001
      8 C         143.9145  144.4247  162.3566 C.ar    1  UNL1        0.0015
      9 C         144.0007  142.9361  162.1931 C.ar    1  UNL1        0.0188
     10 N         145.2293  142.4549  158.7000 N.2     1  UNL1       -0.1636
     11 C         143.9964  142.5289  159.5513 C.2     1  UNL1        0.1204
     12 N         145.1863  142.9232  157.2756 N.pl3   1  UNL1       -0.1361
     13 H         144.3753  143.3569  156.9242 H       1  UNL1        0.1966
     14 S         146.3789  142.7304  156.3865 S.O2    1  UNL1        0.0877
     15 O         147.2856  143.1024  157.5220 O.2     1  UNL1       -0.1487
     16 O         145.4721  142.3584  155.2509 O.2     1  UNL1       -0.1487
     17 C         151.1493  141.9594  152.8299 C.3     1  UNL1        0.0310
     18 C         149.9567  142.1522  153.7191 C.ar    1  UNL1       -0.0218
     19 C         148.7378  142.8537  153.1974 C.ar    1  UNL1       -0.0029
     20 C         147.5452  143.0465  154.0865 C.ar    1  UNL1        0.0199
     21 C         147.5714  142.5377  155.4973 C.ar    1  UNL1        0.1266
     22 C         148.7903  141.8362  156.0190 C.ar    1  UNL1        0.0199
     23 C         149.9830  141.6434  155.1299 C.ar    1  UNL1       -0.0029
     24 C         144.2263  139.4142  163.8089 C.3     1  UNL1        0.1920
     25 C         143.0291  138.9796  164.6014 C.2     1  UNL1        0.2492
     26 O         143.1748  137.9357  165.6686 O.2     1  UNL1       -0.2727
     27 N         141.6863  139.5890  164.3266 N.am    1  UNL1       -0.2817
     28 H         141.5907  140.2742  163.6261 H       1  UNL1        0.1549
     29 C         140.4892  139.1544  165.1190 C.ar    1  UNL1        0.0610
     30 C         140.1154  139.8849  166.3747 C.ar    1  UNL1        0.0155
     31 C         138.9183  139.4502  167.1671 C.ar    1  UNL1        0.0013
     32 C         138.0949  138.2850  166.7039 C.ar    1  UNL1        0.0009
     33 C         138.4687  137.5545  165.4483 C.ar    1  UNL1        0.0126
     34 C         139.6659  137.9892  164.6558 C.ar    1  UNL1        0.0711
     35 CL        140.0398  137.2587  163.4002 Cl      1  UNL1       -0.0810
@<TRIPOS>BOND
     1    17    18    1
     2    18    19   ar
     3    19    20   ar
     4    20    21   ar
     5    21    14    1
     6    14    15    2
     7    14    16    2
     8    14    12    1
     9    12    10    1
    10    10    11    2
    11    11     1    1
    12     1     2   ar
    13     2     3   ar
    14     3    24    1
    15    24    25    1
    16    25    26    2
    17    25    27   am
    18    27    29    1
    19    29    30   ar
    20    30    31   ar
    21    31    32   ar
    22    32    33   ar
    23    33    34   ar
    24    34    35    1
    25     3     4   ar
    26     4     5   ar
    27     5     6   ar
    28     6     7   ar
    29     7     8   ar
    30     8     9   ar
    31    21    22   ar
    32    22    23   ar
    33    23    18   ar
    34     9     1   ar
    35    34    29   ar
    36     9     4   ar
    37    12    13    1
    38    27    28    1
@<TRIPOS>MOLECULE
*****
 35 38 0 0 0
SMALL
GASTEIGER

@<TRIPOS>ATOM
      1 C         142.3980  138.7056  161.8039 C.ar    1  UNL1        0.0393
      2 C         143.5251  138.8860  162.7771 C.ar    1  UNL1        0.0779
      3 N         142.9949  138.6198  164.1548 N.ar    1  UNL1       -0.3177
      4 C         141.5401  138.2748  164.0330 C.ar    1  UNL1        0.0604
      5 C         140.5038  137.9193  165.0574 C.ar    1  UNL1        0.0172
      6 C         139.0985  137.6168  164.6289 C.ar    1  UNL1        0.0015
      7 C         138.7296  137.6699  163.1759 C.ar    1  UNL1        0.0001
      8 C         139.7660  138.0254  162.1515 C.ar    1  UNL1        0.0015
      9 C         141.1713  138.3279  162.5800 C.ar    1  UNL1        0.0188
     10 N         142.1828  140.2048  159.6928 N.2     1  UNL1       -0.1636
     11 C         142.4828  138.8735  160.3157 C.2     1  UNL1        0.1204
     12 N         142.2676  140.3726  158.2046 N.pl3   1  UNL1       -0.1361
     13 H         141.4675  140.2363  157.6475 H       1  UNL1        0.1966
     14 S         143.5716  140.7481  157.5654 S.O2    1  UNL1        0.0877
     15 O         143.7815  139.3208  157.1550 O.2     1  UNL1       -0.1487
     16 O         143.3616  142.1756  157.9758 O.2     1  UNL1       -0.1487
     17 C         148.7874  142.2506  155.0084 C.3     1  UNL1        0.0310
     18 C         147.4834  141.8749  155.6476 C.ar    1  UNL1       -0.0218
     19 C         146.9982  142.6201  156.8556 C.ar    1  UNL1       -0.0029
     20 C         145.6943  142.2446  157.4949 C.ar    1  UNL1        0.0199
     21 C         144.8755  141.1238  156.9262 C.ar    1  UNL1        0.1266
     22 C         145.3607  140.3786  155.7182 C.ar    1  UNL1        0.0199
     23 C         146.6647  140.7541  155.0789 C.ar    1  UNL1       -0.0029
     24 C         143.7813  138.6867  165.4303 C.3     1  UNL1        0.1920
     25 C         143.2424  139.4490  166.6046 C.2     1  UNL1        0.2492
     26 O         143.0957  138.7718  167.9350 O.2     1  UNL1       -0.2727
     27 N         142.8503  140.8884  166.4483 N.am    1  UNL1       -0.2817
     28 H         142.9466  141.3328  165.5751 H       1  UNL1        0.1549
     29 C         142.3116  141.6505  167.6225 C.ar    1  UNL1        0.0610
     30 C         143.2507  142.1993  168.6554 C.ar    1  UNL1        0.0155
     31 C         142.7118  142.9614  169.8296 C.ar    1  UNL1        0.0013
     32 C         141.2338  143.1749  169.9709 C.ar    1  UNL1        0.0009
     33 C         140.2946  142.6262  168.9380 C.ar    1  UNL1        0.0126
     34 C         140.8336  141.8640  167.7637 C.ar    1  UNL1        0.0711
     35 CL        139.8944  141.3153  166.7308 Cl      1  UNL1       -0.0810
@<TRIPOS>BOND
     1    17    18    1
     2    18    19   ar
     3    19    20   ar
     4    20    21   ar
     5    21    14    1
     6    14    15    2
     7    14    16    2
     8    14    12    1
     9    12    10    1
    10    10    11    2
    11    11     1    1
    12     1     2   ar
    13     2     3   ar
    14     3    24    1
    15    24    25    1
    16    25    26    2
    17    25    27   am
    18    27    29    1
    19    29    30   ar
    20    30    31   ar
    21    31    32   ar
    22    32    33   ar
    23    33    34   ar
    24    34    35    1
    25     3     4   ar
    26     4     5   ar
    27     5     6   ar
    28     6     7   ar
    29     7     8   ar
    30     8     9   ar
    31    21    22   ar
    32    22    23   ar
    33    23    18   ar
    34     9     1   ar
    35    34    29   ar
    36     9     4   ar
    37    12    13    1
    38    27    28    1
@<TRIPOS>MOLECULE
*****
 35 38 0 0 0
SMALL
GASTEIGER

@<TRIPOS>ATOM
      1 C         141.2447  137.6508  156.8232 C.ar    1  UNL1        0.0393
      2 C         142.4904  136.9219  157.2316 C.ar    1  UNL1        0.0779
      3 N         142.8173  135.9258  156.1588 N.ar    1  UNL1       -0.3177
      4 C         141.7736  136.0390  155.0875 C.ar    1  UNL1        0.0604
      5 C         141.5827  135.3090  153.7911 C.ar    1  UNL1        0.0172
      6 C         140.4197  135.6452  152.9053 C.ar    1  UNL1        0.0015
      7 C         139.4478  136.7113  153.3160 C.ar    1  UNL1        0.0001
      8 C         139.6387  137.4413  154.6124 C.ar    1  UNL1        0.0015
      9 C         140.8016  137.1051  155.4981 C.ar    1  UNL1        0.0188
     10 N         139.6585  138.3808  158.7472 N.2     1  UNL1       -0.1636
     11 C         140.5618  138.7350  157.6031 C.2     1  UNL1        0.1204
     12 N         138.9756  139.4650  159.5270 N.pl3   1  UNL1       -0.1361
     13 H         138.6187  140.2559  159.0619 H       1  UNL1        0.1966
     14 S         138.8365  139.3441  161.0156 S.O2    1  UNL1        0.0877
     15 O         138.3990  140.7769  161.0912 O.2     1  UNL1       -0.1487
     16 O         139.2740  137.9113  160.9401 O.2     1  UNL1       -0.1487
     17 C         138.2801  138.8605  166.9702 C.3     1  UNL1        0.0310
     18 C         138.4192  138.9814  165.4816 C.ar    1  UNL1       -0.0218
     19 C         138.9253  137.8198  164.6788 C.ar    1  UNL1       -0.0029
     20 C         139.0644  137.9406  163.1902 C.ar    1  UNL1        0.0199
     21 C         138.6974  139.2232  162.5043 C.ar    1  UNL1        0.1266
     22 C         138.1914  140.3848  163.3071 C.ar    1  UNL1        0.0199
     23 C         138.0522  140.2640  164.7958 C.ar    1  UNL1       -0.0029
     24 C         143.9833  134.9821  156.1576 C.3     1  UNL1        0.1920
     25 C         143.7764  133.5339  156.4896 C.2     1  UNL1        0.2492
     26 O         142.4176  133.0438  156.8938 O.2     1  UNL1       -0.2727
     27 N         144.9284  132.5759  156.4174 N.am    1  UNL1       -0.2817
     28 H         145.8203  132.8976  156.1521 H       1  UNL1        0.1549
     29 C         144.7215  131.1279  156.7493 C.ar    1  UNL1        0.0610
     30 C         144.8805  130.6523  158.1630 C.ar    1  UNL1        0.0155
     31 C         144.6735  129.2042  158.4949 C.ar    1  UNL1        0.0013
     32 C         144.3076  128.2316  157.4132 C.ar    1  UNL1        0.0009
     33 C         144.1486  128.7071  155.9995 C.ar    1  UNL1        0.0126
     34 C         144.3555  130.1553  155.6675 C.ar    1  UNL1        0.0711
     35 CL        144.1965  130.6309  154.2539 Cl      1  UNL1       -0.0810
@<TRIPOS>BOND
     1    17    18    1
     2    18    19   ar
     3    19    20   ar
     4    20    21   ar
     5    21    14    1
     6    14    15    2
     7    14    16    2
     8    14    12    1
     9    12    10    1
    10    10    11    2
    11    11     1    1
    12     1     2   ar
    13     2     3   ar
    14     3    24    1
    15    24    25    1
    16    25    26    2
    17    25    27   am
    18    27    29    1
    19    29    30   ar
    20    30    31   ar
    21    31    32   ar
    22    32    33   ar
    23    33    34   ar
    24    34    35    1
    25     3     4   ar
    26     4     5   ar
    27     5     6   ar
    28     6     7   ar
    29     7     8   ar
    30     8     9   ar
    31    21    22   ar
    32    22    23   ar
    33    23    18   ar
    34     9     1   ar
    35    34    29   ar
    36     9     4   ar
    37    12    13    1
    38    27    28    1
@<TRIPOS>MOLECULE
*****
 35 38 0 0 0
SMALL
GASTEIGER

@<TRIPOS>ATOM
      1 C         143.1838  139.1981  161.6088 C.ar    1  UNL1        0.0393
      2 C         142.6805  138.2355  162.6432 C.ar    1  UNL1        0.0779
      3 N         143.0355  138.7802  163.9949 N.ar    1  UNL1       -0.3177
      4 C         143.7581  140.0795  163.7960 C.ar    1  UNL1        0.0604
      5 C         144.3445  141.0608  164.7671 C.ar    1  UNL1        0.0172
      6 C         145.0226  142.3004  164.2635 C.ar    1  UNL1        0.0015
      7 C         145.1142  142.5587  162.7888 C.ar    1  UNL1        0.0001
      8 C         144.5279  141.5774  161.8176 C.ar    1  UNL1        0.0015
      9 C         143.8498  140.3378  162.3212 C.ar    1  UNL1        0.0188
     10 N         144.0899  139.6194  159.2105 N.2     1  UNL1       -0.1636
     11 C         143.0454  139.0476  160.1228 C.2     1  UNL1        0.1204
     12 N         143.9515  139.4688  157.7245 N.pl3   1  UNL1       -0.1361
     13 H         143.3476  138.7857  157.3530 H       1  UNL1        0.1966
     14 S         144.7331  140.3591  156.8045 S.O2    1  UNL1        0.0877
     15 O         144.3958  141.5422  157.6627 O.2     1  UNL1       -0.1487
     16 O         145.0703  139.1760  155.9462 O.2     1  UNL1       -0.1487
     17 C         147.8597  143.9201  153.1243 C.3     1  UNL1        0.0310
     18 C         147.0781  143.0299  154.0444 C.ar    1  UNL1       -0.0218
     19 C         145.9221  142.2340  153.5149 C.ar    1  UNL1       -0.0029
     20 C         145.1404  141.3438  154.4349 C.ar    1  UNL1        0.0199
     21 C         145.5147  141.2493  155.8844 C.ar    1  UNL1        0.1266
     22 C         146.6707  142.0452  156.4139 C.ar    1  UNL1        0.0199
     23 C         147.4524  142.9355  155.4939 C.ar    1  UNL1       -0.0029
     24 C         142.7227  138.1384  165.3141 C.3     1  UNL1        0.1920
     25 C         142.4684  138.9912  166.5216 C.2     1  UNL1        0.2492
     26 O         143.2546  138.7647  167.7789 O.2     1  UNL1       -0.2727
     27 N         141.4280  140.0706  166.4719 N.am    1  UNL1       -0.2817
     28 H         140.9120  140.2193  165.6467 H       1  UNL1        0.1549
     29 C         141.1738  140.9234  167.6794 C.ar    1  UNL1        0.0610
     30 C         142.1529  141.9936  168.0614 C.ar    1  UNL1        0.0155
     31 C         141.8986  142.8463  169.2689 C.ar    1  UNL1        0.0013
     32 C         140.6652  142.6290  170.0945 C.ar    1  UNL1        0.0009
     33 C         139.6860  141.5588  169.7124 C.ar    1  UNL1        0.0126
     34 C         139.9404  140.7059  168.5048 C.ar    1  UNL1        0.0711
     35 CL        138.9612  139.6357  168.1228 Cl      1  UNL1       -0.0810
@<TRIPOS>BOND
     1    17    18    1
     2    18    19   ar
     3    19    20   ar
     4    20    21   ar
     5    21    14    1
     6    14    15    2
     7    14    16    2
     8    14    12    1
     9    12    10    1
    10    10    11    2
    11    11     1    1
    12     1     2   ar
    13     2     3   ar
    14     3    24    1
    15    24    25    1
    16    25    26    2
    17    25    27   am
    18    27    29    1
    19    29    30   ar
    20    30    31   ar
    21    31    32   ar
    22    32    33   ar
    23    33    34   ar
    24    34    35    1
    25     3     4   ar
    26     4     5   ar
    27     5     6   ar
    28     6     7   ar
    29     7     8   ar
    30     8     9   ar
    31    21    22   ar
    32    22    23   ar
    33    23    18   ar
    34     9     1   ar
    35    34    29   ar
    36     9     4   ar
    37    12    13    1
    38    27    28    1
@<TRIPOS>MOLECULE
*****
 35 38 0 0 0
SMALL
GASTEIGER

@<TRIPOS>ATOM
      1 C         143.0054  138.5830  158.9042 C.ar    1  UNL1        0.0393
      2 C         143.2007  137.8995  160.2251 C.ar    1  UNL1        0.0779
      3 N         143.6544  138.9291  161.2171 N.ar    1  UNL1       -0.3177
      4 C         143.7396  140.2489  160.5094 C.ar    1  UNL1        0.0604
      5 C         144.1306  141.6177  160.9818 C.ar    1  UNL1        0.0172
      6 C         144.1205  142.7727  160.0249 C.ar    1  UNL1        0.0015
      7 C         143.7194  142.5589  158.5954 C.ar    1  UNL1        0.0001
      8 C         143.3284  141.1900  158.1229 C.ar    1  UNL1        0.0015
      9 C         143.3385  140.0350  159.0799 C.ar    1  UNL1        0.0188
     10 N         142.6043  136.4361  157.4971 N.2     1  UNL1       -0.1636
     11 C         142.5559  137.9294  157.6312 C.2     1  UNL1        0.1204
     12 N         142.1548  135.7824  156.2240 N.pl3   1  UNL1       -0.1361
     13 H         141.4961  136.2311  155.6462 H       1  UNL1        0.1966
     14 S         142.7091  134.4450  155.8315 S.O2    1  UNL1        0.0877
     15 O         144.0667  134.8672  156.3094 O.2     1  UNL1       -0.1487
     16 O         141.3513  134.0227  155.3536 O.2     1  UNL1       -0.1487
     17 C         144.9257  129.0951  154.2613 C.3     1  UNL1        0.0310
     18 C         144.3716  130.4326  154.6539 C.ar    1  UNL1       -0.0218
     19 C         143.3422  131.1004  153.7911 C.ar    1  UNL1       -0.0029
     20 C         142.7881  132.4379  154.1836 C.ar    1  UNL1        0.0199
     21 C         143.2632  133.1075  155.4389 C.ar    1  UNL1        0.1266
     22 C         144.2925  132.4396  156.3017 C.ar    1  UNL1        0.0199
     23 C         144.8468  131.1021  155.9092 C.ar    1  UNL1       -0.0029
     24 C         143.9680  138.6822  162.6630 C.3     1  UNL1        0.1920
     25 C         142.8680  138.7008  163.6828 C.2     1  UNL1        0.2492
     26 O         143.1895  138.5154  165.1362 O.2     1  UNL1       -0.2727
     27 N         141.4466  138.9049  163.2492 N.am    1  UNL1       -0.2817
     28 H         141.2356  139.0266  162.2953 H       1  UNL1        0.1549
     29 C         140.3468  138.9235  164.2689 C.ar    1  UNL1        0.0610
     30 C         139.6128  137.6589  164.6036 C.ar    1  UNL1        0.0155
     31 C         138.5130  137.6776  165.6234 C.ar    1  UNL1        0.0013
     32 C         138.1470  138.9608  166.3086 C.ar    1  UNL1        0.0009
     33 C         138.8810  140.2254  165.9739 C.ar    1  UNL1        0.0126
     34 C         139.9810  140.2068  164.9540 C.ar    1  UNL1        0.0711
     35 CL        140.7150  141.4714  164.6193 Cl      1  UNL1       -0.0810
@<TRIPOS>BOND
     1    17    18    1
     2    18    19   ar
     3    19    20   ar
     4    20    21   ar
     5    21    14    1
     6    14    15    2
     7    14    16    2
     8    14    12    1
     9    12    10    1
    10    10    11    2
    11    11     1    1
    12     1     2   ar
    13     2     3   ar
    14     3    24    1
    15    24    25    1
    16    25    26    2
    17    25    27   am
    18    27    29    1
    19    29    30   ar
    20    30    31   ar
    21    31    32   ar
    22    32    33   ar
    23    33    34   ar
    24    34    35    1
    25     3     4   ar
    26     4     5   ar
    27     5     6   ar
    28     6     7   ar
    29     7     8   ar
    30     8     9   ar
    31    21    22   ar
    32    22    23   ar
    33    23    18   ar
    34     9     1   ar
    35    34    29   ar
    36     9     4   ar
    37    12    13    1
    38    27    28    1
@<TRIPOS>MOLECULE
*****
 35 38 0 0 0
SMALL
GASTEIGER

@<TRIPOS>ATOM
      1 C         138.3285  142.6696  156.4816 C.ar    1  UNL1        0.0393
      2 C         139.2558  142.3111  157.6047 C.ar    1  UNL1        0.0779
      3 N         140.0366  143.5384  157.9708 N.ar    1  UNL1       -0.3177
      4 C         139.5918  144.6554  157.0739 C.ar    1  UNL1        0.0604
      5 C         140.0118  146.0921  156.9763 C.ar    1  UNL1        0.0172
      6 C         139.3759  146.9918  155.9584 C.ar    1  UNL1        0.0015
      7 C         138.3202  146.4549  155.0381 C.ar    1  UNL1        0.0001
      8 C         137.9003  145.0182  155.1356 C.ar    1  UNL1        0.0015
      9 C         138.5361  144.1185  156.1535 C.ar    1  UNL1        0.0188
     10 N         136.6490  140.6909  156.6025 N.2     1  UNL1       -0.1636
     11 C         137.3629  141.7421  155.8052 C.2     1  UNL1        0.1204
     12 N         135.6835  139.7634  155.9262 N.pl3   1  UNL1       -0.1361
     13 H         136.0152  138.9632  155.4582 H       1  UNL1        0.1966
     14 S         134.2126  140.0550  155.9629 S.O2    1  UNL1        0.0877
     15 O         134.1673  139.6449  157.4051 O.2     1  UNL1       -0.1487
     16 O         134.2579  140.4650  154.5207 O.2     1  UNL1       -0.1487
     17 C         128.3289  141.2215  156.1097 C.3     1  UNL1        0.0310
     18 C         129.7998  140.9299  156.0730 C.ar    1  UNL1       -0.0218
     19 C         130.7104  141.7712  155.2286 C.ar    1  UNL1       -0.0029
     20 C         132.1813  141.4796  155.1919 C.ar    1  UNL1        0.0199
     21 C         132.7417  140.3466  155.9996 C.ar    1  UNL1        0.1266
     22 C         131.8311  139.5053  156.8441 C.ar    1  UNL1        0.0199
     23 C         130.3601  139.7969  156.8808 C.ar    1  UNL1       -0.0029
     24 C         141.0792  143.6322  159.0451 C.3     1  UNL1        0.1920
     25 C         140.6879  144.0310  160.4372 C.2     1  UNL1        0.2492
     26 O         140.8365  145.4569  160.8787 O.2     1  UNL1       -0.2727
     27 N         140.1480  143.0040  161.3878 N.am    1  UNL1       -0.2817
     28 H         140.0504  142.0681  161.0981 H       1  UNL1        0.1549
     29 C         139.7567  143.4028  162.7798 C.ar    1  UNL1        0.0610
     30 C         138.4066  144.0040  163.0363 C.ar    1  UNL1        0.0155
     31 C         138.0154  144.4028  164.4284 C.ar    1  UNL1        0.0013
     32 C         138.9742  144.2004  165.5641 C.ar    1  UNL1        0.0009
     33 C         140.3243  143.5992  165.3076 C.ar    1  UNL1        0.0126
     34 C         140.7155  143.2004  163.9155 C.ar    1  UNL1        0.0711
     35 CL        142.0656  142.5992  163.6590 Cl      1  UNL1       -0.0810
@<TRIPOS>BOND
     1    17    18    1
     2    18    19   ar
     3    19    20   ar
     4    20    21   ar
     5    21    14    1
     6    14    15    2
     7    14    16    2
     8    14    12    1
     9    12    10    1
    10    10    11    2
    11    11     1    1
    12     1     2   ar
    13     2     3   ar
    14     3    24    1
    15    24    25    1
    16    25    26    2
    17    25    27   am
    18    27    29    1
    19    29    30   ar
    20    30    31   ar
    21    31    32   ar
    22    32    33   ar
    23    33    34   ar
    24    34    35    1
    25     3     4   ar
    26     4     5   ar
    27     5     6   ar
    28     6     7   ar
    29     7     8   ar
    30     8     9   ar
    31    21    22   ar
    32    22    23   ar
    33    23    18   ar
    34     9     1   ar
    35    34    29   ar
    36     9     4   ar
    37    12    13    1
    38    27    28    1
