@<TRIPOS>MOLECULE
*****
 30 32 0 0 0
SMALL
GASTEIGER

@<TRIPOS>ATOM
      1 C         140.8391  138.7218  161.0792 C.ar    1  UNL1        0.0594
      2 C         140.3100  140.0568  161.5124 C.ar    1  UNL1        0.0164
      3 C         140.0509  140.3253  162.9652 C.ar    1  UNL1        0.0181
      4 C         140.3207  139.2587  163.9848 C.ar    1  UNL1        0.0758
      5 C         140.8498  137.9236  163.5516 C.ar    1  UNL1        0.1546
      6 F         141.1196  136.8570  164.5712 F       1  UNL1       -0.2028
      7 C         141.1089  137.6552  162.0988 C.ar    1  UNL1        0.0459
      8 N         140.0615  139.5272  165.4377 N.pl3   1  UNL1       -0.3023
      9 C         141.0933  140.2345  166.2654 C.3     1  UNL1        0.1124
     10 C         140.8341  140.5031  167.7183 C.3     1  UNL1        0.1149
     11 N         139.5431  140.0642  168.3434 N.am    1  UNL1       -0.2740
     12 C         139.2839  140.3327  169.7962 C.2     1  UNL1        0.2557
     13 O         137.9929  139.8938  170.4213 O.2     1  UNL1       -0.2722
     14 C         138.5113  139.3568  167.5156 C.3     1  UNL1        0.1149
     15 C         138.7705  139.0883  166.0628 C.3     1  UNL1        0.1124
     16 C         140.3156  141.0400  170.6238 C.3     1  UNL1        0.2232
     17 O         140.6950  140.5006  171.9712 O.3     1  UNL1       -0.3737
     18 H         139.9349  140.5639  172.5705 H       1  UNL1        0.2110
     19 C         140.7643  137.9227  157.2816 C.3     1  UNL1        0.2100
     20 C         140.0651  138.1056  158.5959 C.3     1  UNL1        0.1468
     21 N         141.0983  138.4532  159.6263 N.am    1  UNL1       -0.2212
     22 C         142.4361  138.4852  158.9487 C.2     1  UNL1        0.4088
     23 O         143.7497  138.7914  159.6050 O.2     1  UNL1       -0.2258
     24 O         142.2298  138.1574  157.4997 O.3     1  UNL1       -0.4345
     25 C         140.1127  137.5675  155.9781 C.3     1  UNL1        0.1352
     26 C         136.5724  137.8894  154.2137 C.3     1  UNL1        0.0946
     27 C         138.0303  137.6064  154.4250 C.2     1  UNL1        0.2231
     28 O         138.8636  137.0795  153.2945 O.2     1  UNL1       -0.2751
     29 N         138.6548  137.8505  155.7667 N.am    1  UNL1       -0.3011
     30 H         138.1079  138.1963  156.5087 H       1  UNL1        0.1495
@<TRIPOS>BOND
     1    26    27    1
     2    27    28    2
     3    27    29   am
     4    29    25    1
     5    19    25    1
     6    19    20    1
     7    20    21    1
     8    21     1    1
     9     1     2   ar
    10     2     3   ar
    11     3     4   ar
    12     4     8    1
    13     8     9    1
    14     9    10    1
    15    10    11    1
    16    11    12   am
    17    12    13    2
    18    12    16    1
    19    16    17    1
    20    11    14    1
    21    14    15    1
    22     4     5   ar
    23     5     6    1
    24     5     7   ar
    25    21    22   am
    26    22    23    2
    27    22    24    1
    28    24    19    1
    29     7     1   ar
    30    15     8    1
    31    29    30    1
    32    17    18    1
@<TRIPOS>MOLECULE
*****
 30 32 0 0 0
SMALL
GASTEIGER

@<TRIPOS>ATOM
      1 C         138.8782  141.9048  161.3302 C.ar    1  UNL1        0.0594
      2 C         139.9790  140.9970  161.7928 C.ar    1  UNL1        0.0164
      3 C         140.2163  140.7930  163.2597 C.ar    1  UNL1        0.0181
      4 C         139.3527  141.4969  164.2642 C.ar    1  UNL1        0.0758
      5 C         138.2519  142.4047  163.8016 C.ar    1  UNL1        0.1546
      6 F         137.3883  143.1086  164.8060 F       1  UNL1       -0.2028
      7 C         138.0146  142.6087  162.3346 C.ar    1  UNL1        0.0459
      8 N         139.5900  141.2929  165.7312 N.pl3   1  UNL1       -0.3023
      9 C         140.3241  142.3334  166.5240 C.3     1  UNL1        0.1124
     10 C         140.5614  142.1294  167.9910 C.3     1  UNL1        0.1149
     11 N         140.0646  140.8849  168.6652 N.am    1  UNL1       -0.2740
     12 C         140.3019  140.6809  170.1322 C.2     1  UNL1        0.2557
     13 O         139.8051  139.4364  170.8063 O.2     1  UNL1       -0.2722
     14 C         139.3305  139.8444  167.8723 C.3     1  UNL1        0.1149
     15 C         139.0933  140.0484  166.4054 C.3     1  UNL1        0.1124
     16 C         141.0360  141.7213  170.9250 C.3     1  UNL1        0.2232
     17 O         140.4240  142.2824  172.1743 O.3     1  UNL1       -0.3737
     18 H         139.6264  142.7850  171.9461 H       1  UNL1        0.2110
     19 C         137.8410  141.8115  157.5910 C.3     1  UNL1        0.2100
     20 C         137.7981  141.2399  158.9772 C.3     1  UNL1        0.1468
     21 N         138.6409  142.1088  159.8632 N.am    1  UNL1       -0.2212
     22 C         139.2046  143.2173  159.0246 C.2     1  UNL1        0.4088
     23 O         140.1047  144.3166  159.5057 O.2     1  UNL1       -0.2258
     24 O         138.7103  143.0337  157.6203 O.3     1  UNL1       -0.4345
     25 C         137.1381  141.2582  156.3870 C.3     1  UNL1        0.1352
     26 C         133.2843  141.0377  155.4649 C.3     1  UNL1        0.0946
     27 C         134.6960  140.6277  155.7636 C.2     1  UNL1        0.2231
     28 O         135.0772  139.1772  155.7374 O.2     1  UNL1       -0.2751
     29 N         135.7264  141.6682  156.0883 N.am    1  UNL1       -0.3011
     30 H         135.4762  142.6203  156.1055 H       1  UNL1        0.1495
@<TRIPOS>BOND
     1    26    27    1
     2    27    28    2
     3    27    29   am
     4    29    25    1
     5    19    25    1
     6    19    20    1
     7    20    21    1
     8    21     1    1
     9     1     2   ar
    10     2     3   ar
    11     3     4   ar
    12     4     8    1
    13     8     9    1
    14     9    10    1
    15    10    11    1
    16    11    12   am
    17    12    13    2
    18    12    16    1
    19    16    17    1
    20    11    14    1
    21    14    15    1
    22     4     5   ar
    23     5     6    1
    24     5     7   ar
    25    21    22   am
    26    22    23    2
    27    22    24    1
    28    24    19    1
    29     7     1   ar
    30    15     8    1
    31    29    30    1
    32    17    18    1
@<TRIPOS>MOLECULE
*****
 30 32 0 0 0
SMALL
GASTEIGER

@<TRIPOS>ATOM
      1 C         141.0225  138.7449  161.0559 C.ar    1  UNL1        0.0594
      2 C         140.5691  140.0918  161.5357 C.ar    1  UNL1        0.0164
      3 C         140.3493  140.3314  163.0000 C.ar    1  UNL1        0.0181
      4 C         140.5829  139.2241  163.9845 C.ar    1  UNL1        0.0758
      5 C         141.0363  137.8772  163.5048 C.ar    1  UNL1        0.1546
      6 F         141.2699  136.7699  164.4893 F       1  UNL1       -0.2028
      7 C         141.2561  137.6376  162.0405 C.ar    1  UNL1        0.0459
      8 N         140.3630  139.4638  165.4489 N.pl3   1  UNL1       -0.3023
      9 C         141.4982  139.9303  166.3112 C.3     1  UNL1        0.1124
     10 C         141.2783  140.1700  167.7756 C.3     1  UNL1        0.1149
     11 N         139.9233  139.9431  168.3776 N.am    1  UNL1       -0.2740
     12 C         139.7034  140.1827  169.8418 C.2     1  UNL1        0.2557
     13 O         138.3483  139.9558  170.4438 O.2     1  UNL1       -0.2722
     14 C         138.7881  139.4765  167.5151 C.3     1  UNL1        0.1149
     15 C         139.0080  139.2369  166.0508 C.3     1  UNL1        0.1124
     16 C         140.8386  140.6493  170.7042 C.3     1  UNL1        0.2232
     17 O         140.7396  140.5421  172.1971 O.3     1  UNL1       -0.3737
     18 H         140.0392  141.1315  172.5179 H       1  UNL1        0.2110
     19 C         142.2972  137.9612  157.4745 C.3     1  UNL1        0.2100
     20 C         142.5308  138.0808  158.9513 C.3     1  UNL1        0.1468
     21 N         141.2424  138.5053  159.5916 N.am    1  UNL1       -0.2212
     22 C         140.2125  138.6480  158.5104 C.2     1  UNL1        0.4088
     23 O         138.7819  139.0554  158.7037 O.2     1  UNL1       -0.2258
     24 O         140.8643  138.3117  157.2020 O.3     1  UNL1       -0.4345
     25 C         143.3172  137.5613  156.4500 C.3     1  UNL1        0.1352
     26 C         143.5133  133.6177  156.0503 C.3     1  UNL1        0.0946
     27 C         142.9702  135.0159  156.0619 C.2     1  UNL1        0.2231
     28 O         141.5371  135.2669  155.6971 O.2     1  UNL1       -0.2751
     29 N         143.8603  136.1631  156.4384 N.am    1  UNL1       -0.3011
     30 H         144.8009  135.9983  156.6778 H       1  UNL1        0.1495
@<TRIPOS>BOND
     1    26    27    1
     2    27    28    2
     3    27    29   am
     4    29    25    1
     5    19    25    1
     6    19    20    1
     7    20    21    1
     8    21     1    1
     9     1     2   ar
    10     2     3   ar
    11     3     4   ar
    12     4     8    1
    13     8     9    1
    14     9    10    1
    15    10    11    1
    16    11    12   am
    17    12    13    2
    18    12    16    1
    19    16    17    1
    20    11    14    1
    21    14    15    1
    22     4     5   ar
    23     5     6    1
    24     5     7   ar
    25    21    22   am
    26    22    23    2
    27    22    24    1
    28    24    19    1
    29     7     1   ar
    30    15     8    1
    31    29    30    1
    32    17    18    1
@<TRIPOS>MOLECULE
*****
 30 32 0 0 0
SMALL
GASTEIGER

@<TRIPOS>ATOM
      1 C         143.0883  140.6328  161.6807 C.ar    1  UNL1        0.0594
      2 C         141.8211  141.3400  162.0603 C.ar    1  UNL1        0.0164
      3 C         141.3468  141.3170  163.4831 C.ar    1  UNL1        0.0181
      4 C         142.1398  140.5870  164.5263 C.ar    1  UNL1        0.0758
      5 C         143.4070  139.8799  164.1468 C.ar    1  UNL1        0.1546
      6 F         144.1999  139.1498  165.1900 F       1  UNL1       -0.2028
      7 C         143.8812  139.9028  162.7239 C.ar    1  UNL1        0.0459
      8 N         141.6654  140.5641  165.9492 N.pl3   1  UNL1       -0.3023
      9 C         142.4981  141.1916  167.0276 C.3     1  UNL1        0.1124
     10 C         142.0237  141.1687  168.4505 C.3     1  UNL1        0.1149
     11 N         140.7167  140.5183  168.7949 N.am    1  UNL1       -0.2740
     12 C         140.2423  140.4953  170.2177 C.2     1  UNL1        0.2557
     13 O         138.9353  139.8449  170.5622 O.2     1  UNL1       -0.2722
     14 C         139.8840  139.8907  167.7165 C.3     1  UNL1        0.1149
     15 C         140.3584  139.9137  166.2937 C.3     1  UNL1        0.1124
     16 C         141.0750  141.1229  171.2961 C.3     1  UNL1        0.2232
     17 O         140.4766  142.1631  172.1961 O.3     1  UNL1       -0.3737
     18 H         140.2602  142.9537  171.6773 H       1  UNL1        0.2110
     19 C         144.3741  141.4356  158.1074 C.3     1  UNL1        0.2100
     20 C         143.9734  141.8739  159.4848 C.3     1  UNL1        0.1468
     21 N         143.5627  140.6557  160.2578 N.am    1  UNL1       -0.2212
     22 C         143.7096  139.4645  159.3581 C.2     1  UNL1        0.4088
     23 O         143.4081  138.0413  159.7233 O.2     1  UNL1       -0.2258
     24 O         144.2111  139.9465  158.0291 O.3     1  UNL1       -0.4345
     25 C         144.8537  142.3294  157.0024 C.3     1  UNL1        0.1352
     26 C         148.6009  141.9737  155.7447 C.3     1  UNL1        0.0946
     27 C         147.4155  142.3739  156.5721 C.2     1  UNL1        0.2231
     28 O         147.6064  143.2190  157.7966 O.2     1  UNL1       -0.2751
     29 N         146.0391  141.9291  156.1750 N.am    1  UNL1       -0.3011
     30 H         145.9138  141.3744  155.3713 H       1  UNL1        0.1495
@<TRIPOS>BOND
     1    26    27    1
     2    27    28    2
     3    27    29   am
     4    29    25    1
     5    19    25    1
     6    19    20    1
     7    20    21    1
     8    21     1    1
     9     1     2   ar
    10     2     3   ar
    11     3     4   ar
    12     4     8    1
    13     8     9    1
    14     9    10    1
    15    10    11    1
    16    11    12   am
    17    12    13    2
    18    12    16    1
    19    16    17    1
    20    11    14    1
    21    14    15    1
    22     4     5   ar
    23     5     6    1
    24     5     7   ar
    25    21    22   am
    26    22    23    2
    27    22    24    1
    28    24    19    1
    29     7     1   ar
    30    15     8    1
    31    29    30    1
    32    17    18    1
@<TRIPOS>MOLECULE
*****
 30 32 0 0 0
SMALL
GASTEIGER

@<TRIPOS>ATOM
      1 C         140.0470  139.2103  165.0933 C.ar    1  UNL1        0.0594
      2 C         140.2526  137.8037  164.6146 C.ar    1  UNL1        0.0164
      3 C         140.5736  137.5415  163.1730 C.ar    1  UNL1        0.0181
      4 C         140.6890  138.6858  162.2101 C.ar    1  UNL1        0.0758
      5 C         140.4834  140.0924  162.6888 C.ar    1  UNL1        0.1546
      6 F         140.5989  141.2368  161.7259 F       1  UNL1       -0.2028
      7 C         140.1624  140.3547  164.1304 C.ar    1  UNL1        0.0459
      8 N         141.0100  138.4235  160.7685 N.pl3   1  UNL1       -0.3023
      9 C         142.3866  137.9752  160.3762 C.3     1  UNL1        0.1124
     10 C         142.7077  137.7129  158.9346 C.3     1  UNL1        0.1149
     11 N         141.6520  137.8989  157.8853 N.am    1  UNL1       -0.2740
     12 C         141.9730  137.6366  156.4438 C.2     1  UNL1        0.2557
     13 O         140.9173  137.8226  155.3945 O.2     1  UNL1       -0.2722
     14 C         140.2753  138.3472  158.2777 C.3     1  UNL1        0.1149
     15 C         139.9544  138.6095  159.7192 C.3     1  UNL1        0.1124
     16 C         143.3496  137.1883  156.0515 C.3     1  UNL1        0.2232
     17 O         144.4555  138.1927  155.9165 O.3     1  UNL1       -0.3737
     18 H         144.2620  138.7892  155.1765 H       1  UNL1        0.2110
     19 C         139.8876  140.2317  168.8345 C.3     1  UNL1        0.2100
     20 C         140.5979  140.2018  167.5138 C.3     1  UNL1        0.1468
     21 N         139.7260  139.4727  166.5349 N.am    1  UNL1       -0.2212
     22 C         138.4768  139.0519  167.2507 C.2     1  UNL1        0.4088
     23 O         137.3292  138.2950  166.6506 O.2     1  UNL1       -0.2258
     24 O         138.5766  139.5210  168.6719 O.3     1  UNL1       -0.4345
     25 C         140.3984  140.8617  170.0963 C.3     1  UNL1        0.1352
     26 C         144.0326  142.4470  169.9254 C.3     1  UNL1        0.0946
     27 C         142.9310  141.4308  169.9871 C.2     1  UNL1        0.2231
     28 O         143.2605  139.9675  170.0014 O.2     1  UNL1       -0.2751
     29 N         141.5000  141.8779  170.0346 N.am    1  UNL1       -0.3011
     30 H         141.2838  142.8383  170.0252 H       1  UNL1        0.1495
@<TRIPOS>BOND
     1    26    27    1
     2    27    28    2
     3    27    29   am
     4    29    25    1
     5    19    25    1
     6    19    20    1
     7    20    21    1
     8    21     1    1
     9     1     2   ar
    10     2     3   ar
    11     3     4   ar
    12     4     8    1
    13     8     9    1
    14     9    10    1
    15    10    11    1
    16    11    12   am
    17    12    13    2
    18    12    16    1
    19    16    17    1
    20    11    14    1
    21    14    15    1
    22     4     5   ar
    23     5     6    1
    24     5     7   ar
    25    21    22   am
    26    22    23    2
    27    22    24    1
    28    24    19    1
    29     7     1   ar
    30    15     8    1
    31    29    30    1
    32    17    18    1
@<TRIPOS>MOLECULE
*****
 30 32 0 0 0
SMALL
GASTEIGER

@<TRIPOS>ATOM
      1 C         140.2804  139.0624  161.3191 C.ar    1  UNL1        0.0594
      2 C         140.0860  137.8924  162.2374 C.ar    1  UNL1        0.0164
      3 C         140.3571  138.0381  163.7054 C.ar    1  UNL1        0.0181
      4 C         140.8226  139.3538  164.2552 C.ar    1  UNL1        0.0758
      5 C         141.0170  140.5238  163.3369 C.ar    1  UNL1        0.1546
      6 F         141.4824  141.8395  163.8867 F       1  UNL1       -0.2028
      7 C         140.7459  140.3781  161.8689 C.ar    1  UNL1        0.0459
      8 N         141.0936  139.4995  165.7233 N.pl3   1  UNL1       -0.3023
      9 C         140.0012  139.9517  166.6464 C.3     1  UNL1        0.1124
     10 C         140.2723  140.0974  168.1146 C.3     1  UNL1        0.1149
     11 N         141.6358  139.7908  168.6595 N.am    1  UNL1       -0.2740
     12 C         141.9069  139.9365  170.1276 C.2     1  UNL1        0.2557
     13 O         143.2703  139.6300  170.6726 O.2     1  UNL1       -0.2722
     14 C         142.7282  139.3386  167.7363 C.3     1  UNL1        0.1149
     15 C         142.4571  139.1930  166.2683 C.3     1  UNL1        0.1124
     16 C         140.8145  140.3887  171.0507 C.3     1  UNL1        0.2232
     17 O         139.7634  139.4179  171.5012 O.3     1  UNL1       -0.3737
     18 H         139.2291  139.1434  170.7396 H       1  UNL1        0.2110
     19 C         140.2252  138.2975  157.5141 C.3     1  UNL1        0.2100
     20 C         140.8740  138.1919  158.8624 C.3     1  UNL1        0.1468
     21 N         140.0094  138.9167  159.8509 N.am    1  UNL1       -0.2212
     22 C         138.8262  139.4702  159.1136 C.2     1  UNL1        0.4088
     23 O         137.7062  140.2665  159.7149 O.2     1  UNL1       -0.2258
     24 O         138.9595  139.0875  157.6694 O.3     1  UNL1       -0.4345
     25 C         140.7498  137.7153  156.2351 C.3     1  UNL1        0.1352
     26 C         142.6182  134.2141  156.2727 C.3     1  UNL1        0.0946
     27 C         142.3705  135.6897  156.3790 C.2     1  UNL1        0.2231
     28 O         143.4957  136.6154  156.7354 O.2     1  UNL1       -0.2751
     29 N         140.9975  136.2397  156.1289 N.am    1  UNL1       -0.3011
     30 H         140.2590  135.6322  155.8949 H       1  UNL1        0.1495
@<TRIPOS>BOND
     1    26    27    1
     2    27    28    2
     3    27    29   am
     4    29    25    1
     5    19    25    1
     6    19    20    1
     7    20    21    1
     8    21     1    1
     9     1     2   ar
    10     2     3   ar
    11     3     4   ar
    12     4     8    1
    13     8     9    1
    14     9    10    1
    15    10    11    1
    16    11    12   am
    17    12    13    2
    18    12    16    1
    19    16    17    1
    20    11    14    1
    21    14    15    1
    22     4     5   ar
    23     5     6    1
    24     5     7   ar
    25    21    22   am
    26    22    23    2
    27    22    24    1
    28    24    19    1
    29     7     1   ar
    30    15     8    1
    31    29    30    1
    32    17    18    1
@<TRIPOS>MOLECULE
*****
 30 32 0 0 0
SMALL
GASTEIGER

@<TRIPOS>ATOM
      1 C         142.2815  139.2466  161.5285 C.ar    1  UNL1        0.0594
      2 C         142.4471  138.1192  162.5039 C.ar    1  UNL1        0.0164
      3 C         142.0291  138.2967  163.9334 C.ar    1  UNL1        0.0181
      4 C         141.4455  139.6018  164.3877 C.ar    1  UNL1        0.0758
      5 C         141.2799  140.7292  163.4123 C.ar    1  UNL1        0.1546
      6 F         140.6963  142.0342  163.8665 F       1  UNL1       -0.2028
      7 C         141.6979  140.5516  161.9827 C.ar    1  UNL1        0.0459
      8 N         141.0275  139.7793  165.8173 N.pl3   1  UNL1       -0.3023
      9 C         142.0225  140.2488  166.8368 C.3     1  UNL1        0.1124
     10 C         141.6045  140.4264  168.2665 C.3     1  UNL1        0.1149
     11 N         140.1915  140.1343  168.6765 N.am    1  UNL1       -0.2740
     12 C         139.7735  140.3118  170.1061 C.2     1  UNL1        0.2557
     13 O         138.3605  140.0198  170.5161 O.2     1  UNL1       -0.2722
     14 C         139.1965  139.6648  167.6569 C.3     1  UNL1        0.1149
     15 C         139.6145  139.4872  166.2274 C.3     1  UNL1        0.1124
     16 C         140.7685  140.7814  171.1256 C.3     1  UNL1        0.2232
     17 O         140.5298  142.0597  171.8733 O.3     1  UNL1       -0.3737
     18 H         140.5652  142.8069  171.2558 H       1  UNL1        0.2110
     19 C         142.9581  138.1527  157.8663 C.3     1  UNL1        0.2100
     20 C         142.3229  137.9242  159.2059 C.3     1  UNL1        0.1468
     21 N         142.6995  139.0691  160.0989 N.am    1  UNL1       -0.2212
     22 C         143.5673  140.0053  159.3112 C.2     1  UNL1        0.4088
     23 O         144.1697  141.2833  159.8149 O.2     1  UNL1       -0.2258
     24 O         143.7272  139.4390  157.9315 O.3     1  UNL1       -0.4345
     25 C         142.8441  137.2531  156.6715 C.3     1  UNL1        0.1352
     26 C         142.5291  133.3182  156.2621 C.3     1  UNL1        0.0946
     27 C         142.2440  134.7847  156.1267 C.2     1  UNL1        0.2231
     28 O         141.0740  135.2492  155.3112 O.2     1  UNL1       -0.2751
     29 N         143.1291  135.7867  156.8069 N.am    1  UNL1       -0.3011
     30 H         143.8971  135.4818  157.3422 H       1  UNL1        0.1495
@<TRIPOS>BOND
     1    26    27    1
     2    27    28    2
     3    27    29   am
     4    29    25    1
     5    19    25    1
     6    19    20    1
     7    20    21    1
     8    21     1    1
     9     1     2   ar
    10     2     3   ar
    11     3     4   ar
    12     4     8    1
    13     8     9    1
    14     9    10    1
    15    10    11    1
    16    11    12   am
    17    12    13    2
    18    12    16    1
    19    16    17    1
    20    11    14    1
    21    14    15    1
    22     4     5   ar
    23     5     6    1
    24     5     7   ar
    25    21    22   am
    26    22    23    2
    27    22    24    1
    28    24    19    1
    29     7     1   ar
    30    15     8    1
    31    29    30    1
    32    17    18    1
@<TRIPOS>MOLECULE
*****
 30 32 0 0 0
SMALL
GASTEIGER

@<TRIPOS>ATOM
      1 C         143.0500  139.3115  161.2635 C.ar    1  UNL1        0.0594
      2 C         141.8493  140.0099  161.8295 C.ar    1  UNL1        0.0164
      3 C         141.8251  140.4070  163.2757 C.ar    1  UNL1        0.0181
      4 C         143.0018  140.1058  164.1559 C.ar    1  UNL1        0.0758
      5 C         144.2025  139.4075  163.5899 C.ar    1  UNL1        0.1546
      6 F         145.3792  139.1063  164.4701 F       1  UNL1       -0.2028
      7 C         144.2267  139.0104  162.1437 C.ar    1  UNL1        0.0459
      8 N         142.9776  140.5030  165.6022 N.pl3   1  UNL1       -0.3023
      9 C         142.7213  139.4702  166.6594 C.3     1  UNL1        0.1124
     10 C         142.6972  139.8674  168.1057 C.3     1  UNL1        0.1149
     11 N         142.9293  141.2974  168.4948 N.am    1  UNL1       -0.2740
     12 C         142.9051  141.6946  169.9410 C.2     1  UNL1        0.2557
     13 O         143.1372  143.1246  170.3300 O.2     1  UNL1       -0.2722
     14 C         143.1855  142.3302  167.4375 C.3     1  UNL1        0.1149
     15 C         143.2097  141.9330  165.9913 C.3     1  UNL1        0.1124
     16 C         142.6489  140.6618  170.9982 C.3     1  UNL1        0.2232
     17 O         143.7470  139.7305  171.4187 O.3     1  UNL1       -0.3737
     18 H         143.9800  139.1498  170.6776 H       1  UNL1        0.2110
     19 C         142.7915  137.6476  157.7663 C.3     1  UNL1        0.2100
     20 C         142.5709  137.6202  159.2497 C.3     1  UNL1        0.1468
     21 N         143.0742  138.9144  159.8171 N.am    1  UNL1       -0.2212
     22 C         143.6059  139.7415  158.6844 C.2     1  UNL1        0.4088
     23 O         144.2067  141.1111  158.7990 O.2     1  UNL1       -0.2258
     24 O         143.4312  138.9587  157.4169 O.3     1  UNL1       -0.4345
     25 C         142.4351  136.5557  156.8016 C.3     1  UNL1        0.1352
     26 C         143.3249  132.7357  156.1961 C.3     1  UNL1        0.0946
     27 C         142.5971  134.0465  156.1476 C.2     1  UNL1        0.2231
     28 O         141.3036  134.1587  155.3966 O.2     1  UNL1       -0.2751
     29 N         143.1629  135.2449  156.8501 N.am    1  UNL1       -0.3011
     30 H         144.0119  135.1713  157.3430 H       1  UNL1        0.1495
@<TRIPOS>BOND
     1    26    27    1
     2    27    28    2
     3    27    29   am
     4    29    25    1
     5    19    25    1
     6    19    20    1
     7    20    21    1
     8    21     1    1
     9     1     2   ar
    10     2     3   ar
    11     3     4   ar
    12     4     8    1
    13     8     9    1
    14     9    10    1
    15    10    11    1
    16    11    12   am
    17    12    13    2
    18    12    16    1
    19    16    17    1
    20    11    14    1
    21    14    15    1
    22     4     5   ar
    23     5     6    1
    24     5     7   ar
    25    21    22   am
    26    22    23    2
    27    22    24    1
    28    24    19    1
    29     7     1   ar
    30    15     8    1
    31    29    30    1
    32    17    18    1
@<TRIPOS>MOLECULE
*****
 30 32 0 0 0
SMALL
GASTEIGER

@<TRIPOS>ATOM
      1 C         143.0027  142.7829  161.4327 C.ar    1  UNL1        0.0594
      2 C         142.0254  141.7619  161.9349 C.ar    1  UNL1        0.0164
      3 C         141.7005  141.6906  163.3975 C.ar    1  UNL1        0.0181
      4 C         142.3528  142.6403  164.3579 C.ar    1  UNL1        0.0758
      5 C         143.3302  143.6613  163.8557 C.ar    1  UNL1        0.1546
      6 F         143.9826  144.6111  164.8161 F       1  UNL1       -0.2028
      7 C         143.6551  143.7327  162.3931 C.ar    1  UNL1        0.0459
      8 N         142.0278  142.5689  165.8206 N.pl3   1  UNL1       -0.3023
      9 C         143.1069  142.2557  166.8142 C.3     1  UNL1        0.1124
     10 C         142.7819  142.1843  168.2769 C.3     1  UNL1        0.1149
     11 N         141.3778  142.4262  168.7458 N.am    1  UNL1       -0.2740
     12 C         141.0528  142.3549  170.2084 C.2     1  UNL1        0.2557
     13 O         139.6486  142.5968  170.6774 O.2     1  UNL1       -0.2722
     14 C         140.2987  142.7395  167.7521 C.3     1  UNL1        0.1149
     15 C         140.6237  142.8108  166.2895 C.3     1  UNL1        0.1124
     16 C         142.1319  142.0417  171.2021 C.3     1  UNL1        0.2232
     17 O         142.1866  140.6892  171.8485 O.3     1  UNL1       -0.3737
     18 H         141.4066  140.5686  172.4125 H       1  UNL1        0.2110
     19 C         144.2859  142.3746  157.7923 C.3     1  UNL1        0.2100
     20 C         144.2599  141.9425  159.2284 C.3     1  UNL1        0.1468
     21 N         143.3277  142.8543  159.9700 N.am    1  UNL1       -0.2212
     22 C         142.7777  143.8499  158.9921 C.2     1  UNL1        0.4088
     23 O         141.8061  144.9489  159.3052 O.2     1  UNL1       -0.2258
     24 O         143.3699  143.5535  157.6462 O.3     1  UNL1       -0.4345
     25 C         145.0873  141.7394  156.6948 C.3     1  UNL1        0.1352
     26 C         148.8785  141.7485  155.5215 C.3     1  UNL1        0.0946
     27 C         147.3797  141.7134  155.4725 C.2     1  UNL1        0.2231
     28 O         146.6745  141.6173  154.1521 O.2     1  UNL1       -0.2751
     29 N         146.5861  141.7745  156.7438 N.am    1  UNL1       -0.3011
     30 H         147.0489  141.8376  157.6105 H       1  UNL1        0.1495
@<TRIPOS>BOND
     1    26    27    1
     2    27    28    2
     3    27    29   am
     4    29    25    1
     5    19    25    1
     6    19    20    1
     7    20    21    1
     8    21     1    1
     9     1     2   ar
    10     2     3   ar
    11     3     4   ar
    12     4     8    1
    13     8     9    1
    14     9    10    1
    15    10    11    1
    16    11    12   am
    17    12    13    2
    18    12    16    1
    19    16    17    1
    20    11    14    1
    21    14    15    1
    22     4     5   ar
    23     5     6    1
    24     5     7   ar
    25    21    22   am
    26    22    23    2
    27    22    24    1
    28    24    19    1
    29     7     1   ar
    30    15     8    1
    31    29    30    1
    32    17    18    1
