@<TRIPOS>MOLECULE
*****
 27 28 0 0 0
SMALL
GASTEIGER

@<TRIPOS>ATOM
      1 C         139.3384  138.4395  164.4296 C.ar    1  UNL1       -0.0205
      2 C         140.7677  138.8780  164.3081 C.ar    1  UNL1       -0.0042
      3 C         141.3910  139.7113  165.3884 C.ar    1  UNL1       -0.0003
      4 C         140.5850  140.1061  166.5903 C.ar    1  UNL1        0.0000
      5 C         139.1558  139.6676  166.7118 C.ar    1  UNL1       -0.0003
      6 C         138.5325  138.8343  165.6314 C.ar    1  UNL1       -0.0042
      7 C         141.2083  140.9394  167.6706 C.ar    1  UNL1        0.0009
      8 C         142.5666  140.5868  168.2003 C.ar    1  UNL1        0.0009
      9 C         143.1899  141.4201  169.2806 C.ar    1  UNL1        0.0122
     10 C         142.4549  142.6060  169.8313 C.ar    1  UNL1        0.0682
     11 CL        143.0782  143.4393  170.9116 Cl      1  UNL1       -0.0814
     12 C         141.0966  142.9586  169.3016 C.ar    1  UNL1        0.0682
     13 CL        140.3615  144.1446  169.8523 Cl      1  UNL1       -0.0814
     14 C         140.4733  142.1253  168.2213 C.ar    1  UNL1        0.0122
     15 C         138.7152  137.6062  163.3493 C.3     1  UNL1        0.0476
     16 C         138.0905  138.2687  162.1573 C.3     1  UNL1        0.0941
     17 C         138.5362  140.8086  161.8404 C.2     1  UNL1        0.2365
     18 O         139.9170  140.5038  161.3400 O.2     1  UNL1       -0.2737
     19 N         137.6229  139.6910  162.2491 N.am    1  UNL1       -0.3029
     20 H         136.7166  139.8911  162.5775 H       1  UNL1        0.1495
     21 C         138.0687  142.2309  161.9322 C.3     1  UNL1        0.1283
     22 N         138.1506  143.1263  160.7314 N.3     1  UNL1       -0.3150
     23 H         138.5455  142.6077  159.9469 H       1  UNL1        0.1192
     24 H         138.7459  143.9267  160.9441 H       1  UNL1        0.1192
     25 C         137.5193  142.7579  163.2246 C.3     1  UNL1        0.0248
     26 C         139.6323  143.0890  164.6995 C.3     1  UNL1        0.0001
     27 C         138.2587  142.5177  164.5074 C.3     1  UNL1        0.0019
@<TRIPOS>BOND
     1    26    27    1
     2    27    25    1
     3    25    21    1
     4    21    22    1
     5    21    17    1
     6    17    18    2
     7    17    19   am
     8    19    16    1
     9    16    15    1
    10    15     1    1
    11     1     2   ar
    12     2     3   ar
    13     3     4   ar
    14     4     7    1
    15     7     8   ar
    16     8     9   ar
    17     9    10   ar
    18    10    11    1
    19    10    12   ar
    20    12    13    1
    21    12    14   ar
    22     4     5   ar
    23     5     6   ar
    24     6     1   ar
    25    14     7   ar
    26    22    23    1
    27    22    24    1
    28    19    20    1
@<TRIPOS>MOLECULE
*****
 27 28 0 0 0
SMALL
GASTEIGER

@<TRIPOS>ATOM
      1 C         143.3325  143.6976  164.0935 C.ar    1  UNL1       -0.0205
      2 C         144.2546  143.2702  165.1966 C.ar    1  UNL1       -0.0042
      3 C         143.7036  142.5834  166.4110 C.ar    1  UNL1       -0.0003
      4 C         142.2305  142.3239  166.5223 C.ar    1  UNL1        0.0000
      5 C         141.3083  142.7513  165.4191 C.ar    1  UNL1       -0.0003
      6 C         141.8593  143.4381  164.2048 C.ar    1  UNL1       -0.0042
      7 C         141.6795  141.6371  167.7366 C.ar    1  UNL1        0.0009
      8 C         140.4198  142.1408  168.3763 C.ar    1  UNL1        0.0009
      9 C         139.8688  141.4540  169.5907 C.ar    1  UNL1        0.0122
     10 C         140.5775  140.2634  170.1653 C.ar    1  UNL1        0.0682
     11 CL        140.0266  139.5766  171.3797 Cl      1  UNL1       -0.0814
     12 C         141.8373  139.7597  169.5256 C.ar    1  UNL1        0.0682
     13 CL        142.5461  138.5692  170.1003 Cl      1  UNL1       -0.0814
     14 C         142.3883  140.4466  168.3113 C.ar    1  UNL1        0.0122
     15 C         143.8834  144.3844  162.8792 C.3     1  UNL1        0.0476
     16 C         144.2511  143.5825  161.6660 C.3     1  UNL1        0.0941
     17 C         144.5165  141.0308  162.0764 C.2     1  UNL1        0.2365
     18 O         145.8065  141.2813  162.7997 O.2     1  UNL1       -0.2737
     19 N         143.7388  142.1814  161.5096 N.am    1  UNL1       -0.3029
     20 H         142.8921  142.0170  161.0348 H       1  UNL1        0.1495
     21 C         144.0042  139.6297  161.9199 C.3     1  UNL1        0.1283
     22 N         144.6261  138.7123  160.9091 N.3     1  UNL1       -0.3150
     23 H         145.3764  139.2020  160.4217 H       1  UNL1        0.1192
     24 H         143.9184  138.4184  160.2359 H       1  UNL1        0.1192
     25 C         142.8702  139.1460  162.7742 C.3     1  UNL1        0.0248
     26 C         143.9566  139.0777  165.1333 C.3     1  UNL1        0.0001
     27 C         142.8300  139.4914  164.2334 C.3     1  UNL1        0.0019
@<TRIPOS>BOND
     1    26    27    1
     2    27    25    1
     3    25    21    1
     4    21    22    1
     5    21    17    1
     6    17    18    2
     7    17    19   am
     8    19    16    1
     9    16    15    1
    10    15     1    1
    11     1     2   ar
    12     2     3   ar
    13     3     4   ar
    14     4     7    1
    15     7     8   ar
    16     8     9   ar
    17     9    10   ar
    18    10    11    1
    19    10    12   ar
    20    12    13    1
    21    12    14   ar
    22     4     5   ar
    23     5     6   ar
    24     6     1   ar
    25    14     7   ar
    26    22    23    1
    27    22    24    1
    28    19    20    1
@<TRIPOS>MOLECULE
*****
 27 28 0 0 0
SMALL
GASTEIGER

@<TRIPOS>ATOM
      1 C         144.4594  141.6817  164.0659 C.ar    1  UNL1       -0.0205
      2 C         143.5430  140.4999  163.9493 C.ar    1  UNL1       -0.0042
      3 C         142.5030  140.2506  165.0011 C.ar    1  UNL1       -0.0003
      4 C         142.3794  141.1831  166.1695 C.ar    1  UNL1        0.0000
      5 C         143.2958  142.3648  166.2861 C.ar    1  UNL1       -0.0003
      6 C         144.3358  142.6141  165.2343 C.ar    1  UNL1       -0.0042
      7 C         141.3394  140.9337  167.2213 C.ar    1  UNL1        0.0009
      8 C         140.1887  140.0150  166.9353 C.ar    1  UNL1        0.0009
      9 C         139.1487  139.7657  167.9871 C.ar    1  UNL1        0.0122
     10 C         139.2594  140.4351  169.3248 C.ar    1  UNL1        0.0682
     11 CL        138.2194  140.1858  170.3766 Cl      1  UNL1       -0.0814
     12 C         140.4101  141.3539  169.6108 C.ar    1  UNL1        0.0682
     13 CL        140.5208  142.0233  170.9486 Cl      1  UNL1       -0.0814
     14 C         141.4501  141.6032  168.5590 C.ar    1  UNL1        0.0122
     15 C         145.4994  141.9310  163.0141 C.3     1  UNL1        0.0476
     16 C         145.1409  142.6869  161.7692 C.3     1  UNL1        0.0941
     17 C         142.6863  143.4792  161.4567 C.2     1  UNL1        0.2365
     18 O         142.2928  142.0942  161.0360 O.2     1  UNL1       -0.2737
     19 N         144.1103  143.7756  161.8233 N.am    1  UNL1       -0.3029
     20 H         144.3686  144.6846  162.0995 H       1  UNL1        0.1495
     21 C         141.6558  144.5678  161.5109 C.3     1  UNL1        0.1283
     22 N         141.5032  145.5142  160.3571 N.3     1  UNL1       -0.3150
     23 H         142.1751  145.2731  159.6284 H       1  UNL1        0.1192
     24 H         141.6742  146.4682  160.6750 H       1  UNL1        0.1192
     25 C         140.7778  144.7100  162.7187 C.3     1  UNL1        0.0248
     26 C         139.9779  143.8399  165.0324 C.3     1  UNL1        0.0001
     27 C         140.8979  143.7350  163.8522 C.3     1  UNL1        0.0019
@<TRIPOS>BOND
     1    26    27    1
     2    27    25    1
     3    25    21    1
     4    21    22    1
     5    21    17    1
     6    17    18    2
     7    17    19   am
     8    19    16    1
     9    16    15    1
    10    15     1    1
    11     1     2   ar
    12     2     3   ar
    13     3     4   ar
    14     4     7    1
    15     7     8   ar
    16     8     9   ar
    17     9    10   ar
    18    10    11    1
    19    10    12   ar
    20    12    13    1
    21    12    14   ar
    22     4     5   ar
    23     5     6   ar
    24     6     1   ar
    25    14     7   ar
    26    22    23    1
    27    22    24    1
    28    19    20    1
@<TRIPOS>MOLECULE
*****
 27 28 0 0 0
SMALL
GASTEIGER

@<TRIPOS>ATOM
      1 C         138.5227  140.8863  162.8622 C.ar    1  UNL1       -0.0205
      2 C         139.5849  139.8284  162.9123 C.ar    1  UNL1       -0.0042
      3 C         140.3044  139.5482  164.1983 C.ar    1  UNL1       -0.0003
      4 C         139.9617  140.3260  165.4343 C.ar    1  UNL1        0.0000
      5 C         138.8995  141.3839  165.3842 C.ar    1  UNL1       -0.0003
      6 C         138.1800  141.6640  164.0982 C.ar    1  UNL1       -0.0042
      7 C         140.6812  140.0458  166.7203 C.ar    1  UNL1        0.0009
      8 C         142.1046  139.5735  166.6958 C.ar    1  UNL1        0.0009
      9 C         142.8241  139.2933  167.9818 C.ar    1  UNL1        0.0122
     10 C         142.1201  139.4856  169.2923 C.ar    1  UNL1        0.0682
     11 CL        142.8396  139.2054  170.5783 Cl      1  UNL1       -0.0814
     12 C         140.6967  139.9579  169.3168 C.ar    1  UNL1        0.0682
     13 CL        139.9927  140.1502  170.6273 Cl      1  UNL1       -0.0814
     14 C         139.9772  140.2381  168.0308 C.ar    1  UNL1        0.0122
     15 C         137.8032  141.1664  161.5762 C.3     1  UNL1        0.0476
     16 C         138.2259  142.3204  160.7163 C.3     1  UNL1        0.0941
     17 C         139.6040  144.2731  161.7352 C.2     1  UNL1        0.2365
     18 O         138.3430  144.8831  162.2716 O.2     1  UNL1       -0.2737
     19 N         139.5454  142.9917  160.9575 N.am    1  UNL1       -0.3029
     20 H         140.3731  142.5913  160.6055 H       1  UNL1        0.1495
     21 C         140.9235  144.9443  161.9765 C.3     1  UNL1        0.1283
     22 N         141.7497  145.4134  160.8156 N.3     1  UNL1       -0.3150
     23 H         141.2659  145.1964  159.9443 H       1  UNL1        0.1192
     24 H         142.6539  144.9415  160.8292 H       1  UNL1        0.1192
     25 C         141.4169  145.1466  163.3785 C.3     1  UNL1        0.0248
     26 C         142.2432  142.8151  164.1732 C.3     1  UNL1        0.0001
     27 C         141.3642  144.0158  164.3626 C.3     1  UNL1        0.0019
@<TRIPOS>BOND
     1    26    27    1
     2    27    25    1
     3    25    21    1
     4    21    22    1
     5    21    17    1
     6    17    18    2
     7    17    19   am
     8    19    16    1
     9    16    15    1
    10    15     1    1
    11     1     2   ar
    12     2     3   ar
    13     3     4   ar
    14     4     7    1
    15     7     8   ar
    16     8     9   ar
    17     9    10   ar
    18    10    11    1
    19    10    12   ar
    20    12    13    1
    21    12    14   ar
    22     4     5   ar
    23     5     6   ar
    24     6     1   ar
    25    14     7   ar
    26    22    23    1
    27    22    24    1
    28    19    20    1
@<TRIPOS>MOLECULE
*****
 27 28 0 0 0
SMALL
GASTEIGER

@<TRIPOS>ATOM
      1 C         138.6167  138.8006  163.2358 C.ar    1  UNL1       -0.0205
      2 C         138.8726  137.8269  164.3478 C.ar    1  UNL1       -0.0042
      3 C         139.2543  138.3269  165.7095 C.ar    1  UNL1       -0.0003
      4 C         139.3801  139.8006  165.9593 C.ar    1  UNL1        0.0000
      5 C         139.1242  140.7742  164.8473 C.ar    1  UNL1       -0.0003
      6 C         138.7425  140.2742  163.4856 C.ar    1  UNL1       -0.0042
      7 C         139.7618  140.3006  167.3210 C.ar    1  UNL1        0.0009
      8 C         138.9520  139.9041  168.5197 C.ar    1  UNL1        0.0009
      9 C         139.3337  140.4041  169.8815 C.ar    1  UNL1        0.0122
     10 C         140.5252  141.3007  170.0445 C.ar    1  UNL1        0.0682
     11 CL        140.9069  141.8007  171.4062 Cl      1  UNL1       -0.0814
     12 C         141.3350  141.6972  168.8457 C.ar    1  UNL1        0.0682
     13 CL        142.5265  142.5937  169.0087 Cl      1  UNL1       -0.0814
     14 C         140.9533  141.1971  167.4840 C.ar    1  UNL1        0.0122
     15 C         138.2350  138.3005  161.8741 C.3     1  UNL1        0.0476
     16 C         139.2575  138.2567  160.7775 C.3     1  UNL1        0.0941
     17 C         141.6587  139.1493  161.2106 C.2     1  UNL1        0.2365
     18 O         141.1774  140.5523  160.9875 O.2     1  UNL1       -0.2737
     19 N         140.6987  138.0014  161.1055 N.am    1  UNL1       -0.3029
     20 H         141.0146  137.0805  161.2519 H       1  UNL1        0.1495
     21 C         143.0999  138.8940  161.5386 C.3     1  UNL1        0.1283
     22 N         144.1033  138.7338  160.4351 N.3     1  UNL1       -0.3150
     23 H         143.6352  138.8271  159.5337 H       1  UNL1        0.1192
     24 H         144.5357  137.8122  160.4999 H       1  UNL1        0.1192
     25 C         143.5378  138.7990  162.9701 C.3     1  UNL1        0.0248
     26 C         142.9424  138.6318  165.4935 C.3     1  UNL1        0.0001
     27 C         142.5200  138.8497  164.0708 C.3     1  UNL1        0.0019
@<TRIPOS>BOND
     1    26    27    1
     2    27    25    1
     3    25    21    1
     4    21    22    1
     5    21    17    1
     6    17    18    2
     7    17    19   am
     8    19    16    1
     9    16    15    1
    10    15     1    1
    11     1     2   ar
    12     2     3   ar
    13     3     4   ar
    14     4     7    1
    15     7     8   ar
    16     8     9   ar
    17     9    10   ar
    18    10    11    1
    19    10    12   ar
    20    12    13    1
    21    12    14   ar
    22     4     5   ar
    23     5     6   ar
    24     6     1   ar
    25    14     7   ar
    26    22    23    1
    27    22    24    1
    28    19    20    1
@<TRIPOS>MOLECULE
*****
 27 28 0 0 0
SMALL
GASTEIGER

@<TRIPOS>ATOM
      1 C         143.4393  138.5960  162.7714 C.ar    1  UNL1       -0.0205
      2 C         144.2818  139.2977  163.7951 C.ar    1  UNL1       -0.0042
      3 C         143.7243  139.5815  165.1584 C.ar    1  UNL1       -0.0003
      4 C         142.3243  139.1636  165.4981 C.ar    1  UNL1        0.0000
      5 C         141.4819  138.4619  164.4744 C.ar    1  UNL1       -0.0003
      6 C         142.0394  138.1781  163.1111 C.ar    1  UNL1       -0.0042
      7 C         141.7668  139.4474  166.8614 C.ar    1  UNL1        0.0009
      8 C         140.3095  139.7627  167.0250 C.ar    1  UNL1        0.0009
      9 C         139.7520  140.0465  168.3883 C.ar    1  UNL1        0.0122
     10 C         140.6517  140.0149  169.5880 C.ar    1  UNL1        0.0682
     11 CL        140.0942  140.2987  170.9513 Cl      1  UNL1       -0.0814
     12 C         142.1090  139.6996  169.4244 C.ar    1  UNL1        0.0682
     13 CL        143.0089  139.6680  170.6242 Cl      1  UNL1       -0.0814
     14 C         142.6665  139.4158  168.0611 C.ar    1  UNL1        0.0122
     15 C         143.9969  138.3123  161.4081 C.3     1  UNL1        0.0476
     16 C         144.0203  139.3925  160.3677 C.3     1  UNL1        0.0941
     17 C         143.8989  141.8494  161.2037 C.2     1  UNL1        0.2365
     18 O         145.3396  141.7805  161.6153 O.2     1  UNL1       -0.2737
     19 N         143.2392  140.6553  160.5799 N.am    1  UNL1       -0.3029
     20 H         142.2936  140.7005  160.3097 H       1  UNL1        0.1495
     21 C         143.1177  143.1122  161.4160 C.3     1  UNL1        0.1283
     22 N         142.7210  143.9552  160.2403 N.3     1  UNL1       -0.3150
     23 H         143.0626  143.5235  159.3816 H       1  UNL1        0.1192
     24 H         143.1264  144.8862  160.3373 H       1  UNL1        0.1192
     25 C         142.7333  143.5320  162.8037 C.3     1  UNL1        0.0248
     26 C         140.8250  141.8318  163.2703 C.3     1  UNL1        0.0001
     27 C         142.0578  142.5573  163.7221 C.3     1  UNL1        0.0019
@<TRIPOS>BOND
     1    26    27    1
     2    27    25    1
     3    25    21    1
     4    21    22    1
     5    21    17    1
     6    17    18    2
     7    17    19   am
     8    19    16    1
     9    16    15    1
    10    15     1    1
    11     1     2   ar
    12     2     3   ar
    13     3     4   ar
    14     4     7    1
    15     7     8   ar
    16     8     9   ar
    17     9    10   ar
    18    10    11    1
    19    10    12   ar
    20    12    13    1
    21    12    14   ar
    22     4     5   ar
    23     5     6   ar
    24     6     1   ar
    25    14     7   ar
    26    22    23    1
    27    22    24    1
    28    19    20    1
@<TRIPOS>MOLECULE
*****
 27 28 0 0 0
SMALL
GASTEIGER

@<TRIPOS>ATOM
      1 C         140.7099  143.8190  163.0638 C.ar    1  UNL1       -0.0205
      2 C         139.7085  144.0691  164.1521 C.ar    1  UNL1       -0.0042
      3 C         139.9517  143.5347  165.5324 C.ar    1  UNL1       -0.0003
      4 C         141.1963  142.7502  165.8244 C.ar    1  UNL1        0.0000
      5 C         142.1978  142.5000  164.7361 C.ar    1  UNL1       -0.0003
      6 C         141.9545  143.0345  163.3558 C.ar    1  UNL1       -0.0042
      7 C         141.4396  142.2158  167.2047 C.ar    1  UNL1        0.0009
      8 C         142.8214  142.2449  167.7875 C.ar    1  UNL1        0.0009
      9 C         143.0646  141.7105  169.1678 C.ar    1  UNL1        0.0122
     10 C         141.9260  141.1469  169.9653 C.ar    1  UNL1        0.0682
     11 CL        142.1692  140.6125  171.3456 Cl      1  UNL1       -0.0814
     12 C         140.5442  141.1178  169.3825 C.ar    1  UNL1        0.0682
     13 CL        139.4055  140.5543  170.1800 Cl      1  UNL1       -0.0814
     14 C         140.3010  141.6522  168.0022 C.ar    1  UNL1        0.0122
     15 C         140.4667  144.3534  161.6835 C.3     1  UNL1        0.0476
     16 C         139.7838  143.4982  160.6577 C.3     1  UNL1        0.0941
     17 C         138.2315  141.7088  161.7247 C.2     1  UNL1        0.2365
     18 O         137.2974  142.7906  162.1799 O.2     1  UNL1       -0.2737
     19 N         139.4747  142.0626  160.9635 N.am    1  UNL1       -0.3029
     20 H         140.0878  141.3526  160.6648 H       1  UNL1        0.1495
     21 C         137.9224  140.2732  162.0305 C.3     1  UNL1        0.1283
     22 N         137.1017  139.4621  161.0720 N.3     1  UNL1       -0.3150
     23 H         136.8408  140.0407  160.2736 H       1  UNL1        0.1192
     24 H         136.2591  139.1308  161.5417 H       1  UNL1        0.1192
     25 C         138.4338  139.6488  163.2948 C.3     1  UNL1        0.0248
     26 C         138.2452  139.5460  165.8840 C.3     1  UNL1        0.0001
     27 C         138.2231  140.3381  164.6103 C.3     1  UNL1        0.0019
@<TRIPOS>BOND
     1    26    27    1
     2    27    25    1
     3    25    21    1
     4    21    22    1
     5    21    17    1
     6    17    18    2
     7    17    19   am
     8    19    16    1
     9    16    15    1
    10    15     1    1
    11     1     2   ar
    12     2     3   ar
    13     3     4   ar
    14     4     7    1
    15     7     8   ar
    16     8     9   ar
    17     9    10   ar
    18    10    11    1
    19    10    12   ar
    20    12    13    1
    21    12    14   ar
    22     4     5   ar
    23     5     6   ar
    24     6     1   ar
    25    14     7   ar
    26    22    23    1
    27    22    24    1
    28    19    20    1
@<TRIPOS>MOLECULE
*****
 27 28 0 0 0
SMALL
GASTEIGER

@<TRIPOS>ATOM
      1 C         139.4437  138.5245  164.5330 C.ar    1  UNL1       -0.0205
      2 C         138.6577  139.6471  165.1428 C.ar    1  UNL1       -0.0042
      3 C         139.2693  140.4916  166.2212 C.ar    1  UNL1       -0.0003
      4 C         140.6668  140.2135  166.6897 C.ar    1  UNL1        0.0000
      5 C         141.4527  139.0909  166.0799 C.ar    1  UNL1       -0.0003
      6 C         140.8412  138.2464  165.0015 C.ar    1  UNL1       -0.0042
      7 C         141.2783  141.0580  167.7681 C.ar    1  UNL1        0.0009
      8 C         142.6392  140.7225  168.3023 C.ar    1  UNL1        0.0009
      9 C         143.2507  141.5670  169.3807 C.ar    1  UNL1        0.0122
     10 C         142.5014  142.7470  169.9247 C.ar    1  UNL1        0.0682
     11 CL        143.1130  143.5915  171.0031 Cl      1  UNL1       -0.0814
     12 C         141.1406  143.0825  169.3905 C.ar    1  UNL1        0.0682
     13 CL        140.3912  144.2626  169.9346 Cl      1  UNL1       -0.0814
     14 C         140.5290  142.2380  168.3121 C.ar    1  UNL1        0.0122
     15 C         138.8321  137.6800  163.4547 C.3     1  UNL1        0.0476
     16 C         139.1801  137.9311  162.0174 C.3     1  UNL1        0.0941
     17 C         141.4077  139.1840  161.5499 C.2     1  UNL1        0.2365
     18 O         140.7668  140.4766  161.9603 O.2     1  UNL1       -0.2737
     19 N         140.6144  137.9112  161.5785 N.am    1  UNL1       -0.3029
     20 H         141.0350  137.0628  161.3091 H       1  UNL1        0.1495
     21 C         142.8419  139.1641  161.1110 C.3     1  UNL1        0.1283
     22 N         143.2298  139.7567  159.7887 N.3     1  UNL1       -0.3150
     23 H         142.3996  140.1251  159.3245 H       1  UNL1        0.1192
     24 H         143.6544  139.0363  159.2047 H       1  UNL1        0.1192
     25 C         143.8881  138.5516  161.9943 C.3     1  UNL1        0.0248
     26 C         143.9863  140.6378  163.5398 C.3     1  UNL1        0.0001
     27 C         144.2011  139.1688  163.3251 C.3     1  UNL1        0.0019
@<TRIPOS>BOND
     1    26    27    1
     2    27    25    1
     3    25    21    1
     4    21    22    1
     5    21    17    1
     6    17    18    2
     7    17    19   am
     8    19    16    1
     9    16    15    1
    10    15     1    1
    11     1     2   ar
    12     2     3   ar
    13     3     4   ar
    14     4     7    1
    15     7     8   ar
    16     8     9   ar
    17     9    10   ar
    18    10    11    1
    19    10    12   ar
    20    12    13    1
    21    12    14   ar
    22     4     5   ar
    23     5     6   ar
    24     6     1   ar
    25    14     7   ar
    26    22    23    1
    27    22    24    1
    28    19    20    1
@<TRIPOS>MOLECULE
*****
 27 28 0 0 0
SMALL
GASTEIGER

@<TRIPOS>ATOM
      1 C         141.6380  138.4153  163.0998 C.ar    1  UNL1       -0.0205
      2 C         140.6420  139.5038  163.3698 C.ar    1  UNL1       -0.0042
      3 C         140.5101  140.0739  164.7510 C.ar    1  UNL1       -0.0003
      4 C         141.3742  139.5555  165.8621 C.ar    1  UNL1        0.0000
      5 C         142.3702  138.4670  165.5920 C.ar    1  UNL1       -0.0003
      6 C         142.5021  137.8969  164.2108 C.ar    1  UNL1       -0.0042
      7 C         141.2422  140.1256  167.2432 C.ar    1  UNL1        0.0009
      8 C         139.9138  140.1047  167.9394 C.ar    1  UNL1        0.0009
      9 C         139.7819  140.6748  169.3206 C.ar    1  UNL1        0.0122
     10 C         140.9783  141.2658  170.0055 C.ar    1  UNL1        0.0682
     11 CL        140.8464  141.8359  171.3867 Cl      1  UNL1       -0.0814
     12 C         142.3068  141.2866  169.3093 C.ar    1  UNL1        0.0682
     13 CL        143.5033  141.8776  169.9942 Cl      1  UNL1       -0.0814
     14 C         142.4387  140.7165  167.9281 C.ar    1  UNL1        0.0122
     15 C         141.7700  137.8452  161.7186 C.3     1  UNL1        0.0476
     16 C         142.9114  138.2640  160.8402 C.3     1  UNL1        0.0941
     17 C         143.7479  140.6582  161.4042 C.2     1  UNL1        0.2365
     18 O         142.4572  141.2289  160.8960 O.2     1  UNL1       -0.2737
     19 N         143.9750  139.1758  161.3764 N.am    1  UNL1       -0.3029
     20 H         144.8222  138.8012  161.7100 H       1  UNL1        0.1495
     21 C         144.8115  141.5700  161.9404 C.3     1  UNL1        0.1283
     22 N         145.2893  142.7300  161.1181 N.3     1  UNL1       -0.3150
     23 H         144.7871  142.7473  160.2305 H       1  UNL1        0.1192
     24 H         146.2891  142.6325  160.9412 H       1  UNL1        0.1192
     25 C         145.3973  141.3218  163.2988 C.3     1  UNL1        0.0248
     26 C         143.4781  142.3867  164.6890 C.3     1  UNL1        0.0001
     27 C         144.5098  141.3130  164.5080 C.3     1  UNL1        0.0019
@<TRIPOS>BOND
     1    26    27    1
     2    27    25    1
     3    25    21    1
     4    21    22    1
     5    21    17    1
     6    17    18    2
     7    17    19   am
     8    19    16    1
     9    16    15    1
    10    15     1    1
    11     1     2   ar
    12     2     3   ar
    13     3     4   ar
    14     4     7    1
    15     7     8   ar
    16     8     9   ar
    17     9    10   ar
    18    10    11    1
    19    10    12   ar
    20    12    13    1
    21    12    14   ar
    22     4     5   ar
    23     5     6   ar
    24     6     1   ar
    25    14     7   ar
    26    22    23    1
    27    22    24    1
    28    19    20    1
