@<TRIPOS>MOLECULE
*****
 31 34 0 0 0
SMALL
GASTEIGER

@<TRIPOS>ATOM
      1 C         139.5998  146.1482  155.7868 C.ar    1  UNL1        0.0248
      2 C         138.7069  145.0411  155.3106 C.ar    1  UNL1       -0.0001
      3 C         138.6858  143.7291  156.0377 C.ar    1  UNL1        0.0011
      4 C         139.5577  143.5245  157.2410 C.ar    1  UNL1        0.0147
      5 C         140.4507  144.6317  157.7172 C.ar    1  UNL1        0.0504
      6 C         140.4717  145.9435  156.9900 C.ar    1  UNL1        0.0145
      7 C         140.3012  146.5891  154.0454 C.3     1  UNL1        0.0601
      8 C         139.6209  147.4601  155.0598 C.3     1  UNL1        0.2159
      9 C         139.8783  148.4695  153.9804 C.3     1  UNL1        0.1807
     10 N         139.4481  149.8941  154.1679 N.ar    1  UNL1       -0.2390
     11 N         139.5657  151.1023  153.2867 N.ar    1  UNL1       -0.1673
     12 C         138.9507  152.2643  154.0089 C.ar    1  UNL1        0.1219
     13 C         138.4531  151.7743  155.3364 C.ar    1  UNL1        0.0487
     14 C         138.7605  150.3094  155.4347 C.ar    1  UNL1        0.1608
     15 C         138.5032  149.3001  156.5140 C.2     1  UNL1        0.3304
     16 N         137.8156  149.7154  157.7808 N.pl3   1  UNL1       -0.2452
     17 N         138.9334  147.8754  156.3265 N.2     1  UNL1       -0.0666
     18 H         137.5332  150.6504  157.9038 H       1  UNL1        0.2885
     19 H         137.6467  149.0529  158.4891 H       1  UNL1        0.2885
     20 N         141.3226  144.4270  158.9204 N.am    1  UNL1       -0.2791
     21 C         140.9075  144.9821  160.2506 C.2     1  UNL1        0.2672
     22 O         139.6205  145.7420  160.3777 O.2     1  UNL1       -0.2682
     23 H         142.1673  143.9283  158.8371 H       1  UNL1        0.1552
     24 C         141.7794  144.7774  161.4539 C.ar    1  UNL1        0.1348
     25 C         141.3116  145.2309  162.8050 C.ar    1  UNL1        0.0245
     26 C         142.1836  145.0262  164.0082 C.ar    1  UNL1        0.0135
     27 C         143.5232  144.3679  163.8604 C.ar    1  UNL1        0.0876
     28 C         143.9911  143.9143  162.5093 C.ar    1  UNL1        0.1092
     29 N         143.1191  144.1191  161.3061 N.ar    1  UNL1       -0.2385
     30 C         144.3952  144.1631  165.0637 C.1     1  UNL1        0.1020
     31 N         145.2672  143.9583  166.2669 N.1     1  UNL1       -0.1908
@<TRIPOS>BOND
     1     8     7    1
     2     8     1    1
     3     1     2   ar
     4     2     3   ar
     5     3     4   ar
     6     4     5   ar
     7     5    20    1
     8    20    21   am
     9    21    22    2
    10    21    24    1
    11    24    25   ar
    12    25    26   ar
    13    26    27   ar
    14    27    30    1
    15    30    31    3
    16    27    28   ar
    17    28    29   ar
    18     5     6   ar
    19     8     9    1
    20     9    10    1
    21    10    11   ar
    22    11    12   ar
    23    12    13   ar
    24    13    14   ar
    25    14    15    1
    26    15    16    1
    27    15    17    2
    28    17     8    1
    29     6     1   ar
    30    14    10   ar
    31    29    24   ar
    32    20    23    1
    33    16    18    1
    34    16    19    1
@<TRIPOS>MOLECULE
*****
 31 34 0 0 0
SMALL
GASTEIGER

@<TRIPOS>ATOM
      1 C         141.9588  142.5088  165.2830 C.ar    1  UNL1        0.0248
      2 C         143.3392  142.7110  165.8340 C.ar    1  UNL1       -0.0001
      3 C         144.3153  143.5888  165.1081 C.ar    1  UNL1        0.0011
      4 C         143.9109  144.2642  163.8313 C.ar    1  UNL1        0.0147
      5 C         142.5305  144.0620  163.2804 C.ar    1  UNL1        0.0504
      6 C         141.5545  143.1842  164.0063 C.ar    1  UNL1        0.0145
      7 C         141.3362  142.5906  167.1064 C.3     1  UNL1        0.0601
      8 C         140.9827  141.6310  166.0089 C.3     1  UNL1        0.2159
      9 C         140.1293  141.0866  167.1159 C.3     1  UNL1        0.1807
     10 N         139.2615  139.8874  166.8734 N.ar    1  UNL1       -0.2390
     11 N         138.3209  139.1323  167.7651 N.ar    1  UNL1       -0.1673
     12 C         137.7251  138.0109  166.9667 C.ar    1  UNL1        0.1219
     13 C         138.2974  138.0730  165.5815 C.ar    1  UNL1        0.0487
     14 C         139.2470  139.2327  165.5239 C.ar    1  UNL1        0.1608
     15 C         140.1003  139.7772  164.4169 C.2     1  UNL1        0.3304
     16 N         140.0858  139.1225  163.0674 N.pl3   1  UNL1       -0.2452
     17 N         140.9682  140.9763  164.6595 N.2     1  UNL1       -0.0666
     18 H         139.5162  138.3354  162.9082 H       1  UNL1        0.2885
     19 H         140.6459  139.4798  162.3409 H       1  UNL1        0.2885
     20 N         142.1262  144.7375  162.0036 N.am    1  UNL1       -0.2791
     21 C         142.1103  143.9642  160.7184 C.2     1  UNL1        0.2672
     22 O         142.4987  142.5154  160.7099 O.2     1  UNL1       -0.2682
     23 H         141.8713  145.6884  162.0092 H       1  UNL1        0.1552
     24 C         141.7060  144.6397  159.4416 C.ar    1  UNL1        0.1348
     25 C         140.3793  145.3331  159.3474 C.ar    1  UNL1        0.0245
     26 C         139.9751  146.0086  158.0706 C.ar    1  UNL1        0.0135
     27 C         140.8975  145.9907  156.8879 C.ar    1  UNL1        0.0876
     28 C         142.2244  145.2973  156.9821 C.ar    1  UNL1        0.1092
     29 N         142.6286  144.6218  158.2589 N.ar    1  UNL1       -0.2385
     30 C         140.4933  146.6662  155.6111 C.1     1  UNL1        0.1020
     31 N         140.0891  147.3416  154.3342 N.1     1  UNL1       -0.1908
@<TRIPOS>BOND
     1     8     7    1
     2     8     1    1
     3     1     2   ar
     4     2     3   ar
     5     3     4   ar
     6     4     5   ar
     7     5    20    1
     8    20    21   am
     9    21    22    2
    10    21    24    1
    11    24    25   ar
    12    25    26   ar
    13    26    27   ar
    14    27    30    1
    15    30    31    3
    16    27    28   ar
    17    28    29   ar
    18     5     6   ar
    19     8     9    1
    20     9    10    1
    21    10    11   ar
    22    11    12   ar
    23    12    13   ar
    24    13    14   ar
    25    14    15    1
    26    15    16    1
    27    15    17    2
    28    17     8    1
    29     6     1   ar
    30    14    10   ar
    31    29    24   ar
    32    20    23    1
    33    16    18    1
    34    16    19    1
@<TRIPOS>MOLECULE
*****
 31 34 0 0 0
SMALL
GASTEIGER

@<TRIPOS>ATOM
      1 C         142.7136  137.0797  156.3970 C.ar    1  UNL1        0.0248
      2 C         143.5118  138.2776  155.9751 C.ar    1  UNL1       -0.0001
      3 C         143.4727  139.5321  156.7967 C.ar    1  UNL1        0.0011
      4 C         142.6355  139.5885  158.0400 C.ar    1  UNL1        0.0147
      5 C         141.8373  138.3906  158.4618 C.ar    1  UNL1        0.0504
      6 C         141.8764  137.1362  157.6402 C.ar    1  UNL1        0.0145
      7 C         142.1500  136.7706  154.5788 C.3     1  UNL1        0.0601
      8 C         142.7526  135.8252  155.5754 C.3     1  UNL1        0.2159
      9 C         142.5823  134.8991  154.4077 C.3     1  UNL1        0.1807
     10 N         143.0011  133.4633  154.5220 N.ar    1  UNL1       -0.2390
     11 N         142.9556  132.3240  153.5474 N.ar    1  UNL1       -0.1673
     12 C         143.5165  131.1101  154.2270 C.ar    1  UNL1        0.1219
     13 C         143.9087  131.4992  155.6216 C.ar    1  UNL1        0.0487
     14 C         143.5902  132.9536  155.8039 C.ar    1  UNL1        0.1608
     15 C         143.7605  133.8797  156.9715 C.2     1  UNL1        0.3304
     16 N         144.3496  133.3700  158.2534 N.pl3   1  UNL1       -0.2452
     17 N         143.3417  135.3155  156.8572 N.2     1  UNL1       -0.0666
     18 H         144.6245  132.4277  158.3284 H       1  UNL1        0.2885
     19 H         144.4613  133.9779  159.0197 H       1  UNL1        0.2885
     20 N         141.0002  138.4471  159.7051 N.am    1  UNL1       -0.2791
     21 C         141.5969  138.0709  161.0289 C.2     1  UNL1        0.2672
     22 O         143.0308  137.6381  161.1094 O.2     1  UNL1       -0.2682
     23 H         140.0590  138.7312  159.6523 H       1  UNL1        0.1552
     24 C         140.7596  138.1274  162.2722 C.ar    1  UNL1        0.1348
     25 C         141.1298  137.2954  163.4641 C.ar    1  UNL1        0.0245
     26 C         140.2925  137.3520  164.7075 C.ar    1  UNL1        0.0135
     27 C         139.0852  138.2406  164.7589 C.ar    1  UNL1        0.0876
     28 C         138.7150  139.0727  163.5669 C.ar    1  UNL1        0.1092
     29 N         139.5522  139.0160  162.3236 N.ar    1  UNL1       -0.2385
     30 C         138.2479  138.2972  166.0022 C.1     1  UNL1        0.1020
     31 N         137.4106  138.3539  167.2455 N.1     1  UNL1       -0.1908
@<TRIPOS>BOND
     1     8     7    1
     2     8     1    1
     3     1     2   ar
     4     2     3   ar
     5     3     4   ar
     6     4     5   ar
     7     5    20    1
     8    20    21   am
     9    21    22    2
    10    21    24    1
    11    24    25   ar
    12    25    26   ar
    13    26    27   ar
    14    27    30    1
    15    30    31    3
    16    27    28   ar
    17    28    29   ar
    18     5     6   ar
    19     8     9    1
    20     9    10    1
    21    10    11   ar
    22    11    12   ar
    23    12    13   ar
    24    13    14   ar
    25    14    15    1
    26    15    16    1
    27    15    17    2
    28    17     8    1
    29     6     1   ar
    30    14    10   ar
    31    29    24   ar
    32    20    23    1
    33    16    18    1
    34    16    19    1
@<TRIPOS>MOLECULE
*****
 31 34 0 0 0
SMALL
GASTEIGER

@<TRIPOS>ATOM
      1 C         142.5364  137.2891  156.8282 C.ar    1  UNL1        0.0248
      2 C         143.1434  138.3605  155.9717 C.ar    1  UNL1       -0.0001
      3 C         143.5945  139.6501  156.5911 C.ar    1  UNL1        0.0011
      4 C         143.4387  139.8681  158.0670 C.ar    1  UNL1        0.0147
      5 C         142.8316  138.7966  158.9235 C.ar    1  UNL1        0.0504
      6 C         142.3805  137.5071  158.3040 C.ar    1  UNL1        0.0145
      7 C         141.2506  136.9702  155.4268 C.3     1  UNL1        0.0601
      8 C         142.0852  135.9996  156.2088 C.3     1  UNL1        0.2159
      9 C         141.3441  135.0471  155.3178 C.3     1  UNL1        0.1807
     10 N         141.5944  133.5720  155.4240 N.ar    1  UNL1       -0.2390
     11 N         141.0186  132.4006  154.6849 N.ar    1  UNL1       -0.1673
     12 C         141.6540  131.1539  155.2252 C.ar    1  UNL1        0.1219
     13 C         142.6225  131.5548  156.2982 C.ar    1  UNL1        0.0487
     14 C         142.5857  133.0493  156.4210 C.ar    1  UNL1        0.1608
     15 C         143.3267  134.0017  157.3120 C.2     1  UNL1        0.3304
     16 N         144.3179  133.4790  158.3090 N.pl3   1  UNL1       -0.2452
     17 N         143.0764  135.4768  157.2058 N.2     1  UNL1       -0.0666
     18 H         144.4822  132.5108  158.3787 H       1  UNL1        0.2885
     19 H         144.8043  134.1041  158.8938 H       1  UNL1        0.2885
     20 N         142.6758  139.0147  160.3992 N.am    1  UNL1       -0.2791
     21 C         143.5123  138.2300  161.3659 C.2     1  UNL1        0.2672
     22 O         144.5048  137.2271  160.8567 O.2     1  UNL1       -0.2682
     23 H         142.0244  139.6730  160.7335 H       1  UNL1        0.1552
     24 C         143.3565  138.4481  162.8417 C.ar    1  UNL1        0.1348
     25 C         142.1352  137.9413  163.5500 C.ar    1  UNL1        0.0245
     26 C         141.9795  138.1595  165.0258 C.ar    1  UNL1        0.0135
     27 C         143.0449  138.8844  165.7935 C.ar    1  UNL1        0.0876
     28 C         144.2662  139.3912  165.0852 C.ar    1  UNL1        0.1092
     29 N         144.4220  139.1731  163.6093 N.ar    1  UNL1       -0.2385
     30 C         142.8891  139.1026  167.2693 C.1     1  UNL1        0.1020
     31 N         142.7334  139.3206  168.7452 N.1     1  UNL1       -0.1908
@<TRIPOS>BOND
     1     8     7    1
     2     8     1    1
     3     1     2   ar
     4     2     3   ar
     5     3     4   ar
     6     4     5   ar
     7     5    20    1
     8    20    21   am
     9    21    22    2
    10    21    24    1
    11    24    25   ar
    12    25    26   ar
    13    26    27   ar
    14    27    30    1
    15    30    31    3
    16    27    28   ar
    17    28    29   ar
    18     5     6   ar
    19     8     9    1
    20     9    10    1
    21    10    11   ar
    22    11    12   ar
    23    12    13   ar
    24    13    14   ar
    25    14    15    1
    26    15    16    1
    27    15    17    2
    28    17     8    1
    29     6     1   ar
    30    14    10   ar
    31    29    24   ar
    32    20    23    1
    33    16    18    1
    34    16    19    1
@<TRIPOS>MOLECULE
*****
 31 34 0 0 0
SMALL
GASTEIGER

@<TRIPOS>ATOM
      1 C         139.3118  139.3274  165.4351 C.ar    1  UNL1        0.0248
      2 C         138.8981  137.9271  165.0918 C.ar    1  UNL1       -0.0001
      3 C         138.8332  137.4947  163.6568 C.ar    1  UNL1        0.0011
      4 C         139.1821  138.4627  162.5654 C.ar    1  UNL1        0.0147
      5 C         139.5958  139.8631  162.9088 C.ar    1  UNL1        0.0504
      6 C         139.6606  140.2953  164.3437 C.ar    1  UNL1        0.0145
      7 C         138.1546  138.8910  166.9148 C.3     1  UNL1        0.0601
      8 C         139.3766  139.7598  166.8700 C.3     1  UNL1        0.2159
      9 C         139.0170  139.8904  168.3205 C.3     1  UNL1        0.1807
     10 N         139.8569  140.7397  169.2278 N.ar    1  UNL1       -0.2390
     11 N         139.7500  141.0557  170.6902 N.ar    1  UNL1       -0.1673
     12 C         140.8833  141.9696  171.0510 C.ar    1  UNL1        0.1219
     13 C         141.6907  142.2185  169.8116 C.ar    1  UNL1        0.0487
     14 C         141.0563  141.4583  168.6847 C.ar    1  UNL1        0.1608
     15 C         141.4159  141.3277  167.2343 C.2     1  UNL1        0.3304
     16 N         142.6153  142.0463  166.6913 N.pl3   1  UNL1       -0.2452
     17 N         140.5760  140.4784  166.3270 N.2     1  UNL1       -0.0666
     18 H         143.1666  142.6037  167.2868 H       1  UNL1        0.2885
     19 H         142.8513  141.9606  165.7393 H       1  UNL1        0.2885
     20 N         139.9446  140.8309  161.8173 N.am    1  UNL1       -0.2791
     21 C         138.9043  141.7747  161.2910 C.2     1  UNL1        0.2672
     22 O         137.5151  141.7507  161.8562 O.2     1  UNL1       -0.2682
     23 H         140.8564  140.8468  161.4464 H       1  UNL1        0.1552
     24 C         139.2532  142.7427  160.1995 C.ar    1  UNL1        0.1348
     25 C         138.8798  142.4378  158.7791 C.ar    1  UNL1        0.0245
     26 C         139.2287  143.4058  157.6877 C.ar    1  UNL1        0.0135
     27 C         139.9509  144.6786  158.0165 C.ar    1  UNL1        0.0876
     28 C         140.3243  144.9836  159.4370 C.ar    1  UNL1        0.1092
     29 N         139.9754  144.0156  160.5285 N.ar    1  UNL1       -0.2385
     30 C         140.2998  145.6466  156.9251 C.1     1  UNL1        0.1020
     31 N         140.6488  146.6147  155.8337 N.1     1  UNL1       -0.1908
@<TRIPOS>BOND
     1     8     7    1
     2     8     1    1
     3     1     2   ar
     4     2     3   ar
     5     3     4   ar
     6     4     5   ar
     7     5    20    1
     8    20    21   am
     9    21    22    2
    10    21    24    1
    11    24    25   ar
    12    25    26   ar
    13    26    27   ar
    14    27    30    1
    15    30    31    3
    16    27    28   ar
    17    28    29   ar
    18     5     6   ar
    19     8     9    1
    20     9    10    1
    21    10    11   ar
    22    11    12   ar
    23    12    13   ar
    24    13    14   ar
    25    14    15    1
    26    15    16    1
    27    15    17    2
    28    17     8    1
    29     6     1   ar
    30    14    10   ar
    31    29    24   ar
    32    20    23    1
    33    16    18    1
    34    16    19    1
@<TRIPOS>MOLECULE
*****
 31 34 0 0 0
SMALL
GASTEIGER

@<TRIPOS>ATOM
      1 C         140.6023  143.0597  165.5156 C.ar    1  UNL1        0.0248
      2 C         139.3740  143.8092  165.9392 C.ar    1  UNL1       -0.0001
      3 C         138.7196  144.7722  164.9934 C.ar    1  UNL1        0.0011
      4 C         139.2936  144.9857  163.6241 C.ar    1  UNL1        0.0147
      5 C         140.5220  144.2362  163.2006 C.ar    1  UNL1        0.0504
      6 C         141.1764  143.2732  164.1464 C.ar    1  UNL1        0.0145
      7 C         141.6732  141.4980  165.1505 C.3     1  UNL1        0.0601
      8 C         141.2568  142.0967  166.4614 C.3     1  UNL1        0.2159
      9 C         142.0558  140.9257  166.9518 C.3     1  UNL1        0.1807
     10 N         142.2112  140.6879  168.4247 N.ar    1  UNL1       -0.2390
     11 N         142.9341  139.6260  169.1991 N.ar    1  UNL1       -0.1673
     12 C         142.7373  139.9028  170.6601 C.ar    1  UNL1        0.1219
     13 C         141.8927  141.1358  170.7887 C.ar    1  UNL1        0.0487
     14 C         141.5675  141.6210  169.4070 C.ar    1  UNL1        0.1608
     15 C         140.7685  142.7919  168.9166 C.2     1  UNL1        0.3304
     16 N         140.1249  143.7250  169.8990 N.pl3   1  UNL1       -0.2452
     17 N         140.6132  143.0297  167.4437 N.2     1  UNL1       -0.0666
     18 H         140.2268  143.5689  170.8657 H       1  UNL1        0.2885
     19 H         139.6004  144.4935  169.5771 H       1  UNL1        0.2885
     20 N         141.0960  144.4497  161.8314 N.am    1  UNL1       -0.2791
     21 C         140.2735  144.1380  160.6164 C.2     1  UNL1        0.2672
     22 O         138.8769  143.6128  160.7705 O.2     1  UNL1       -0.2682
     23 H         142.0126  144.7944  161.7301 H       1  UNL1        0.1552
     24 C         140.8474  144.3516  159.2471 C.ar    1  UNL1        0.1348
     25 C         140.7188  143.2808  158.2045 C.ar    1  UNL1        0.0245
     26 C         141.2928  143.4944  156.8353 C.ar    1  UNL1        0.0135
     27 C         141.9954  144.7787  156.5085 C.ar    1  UNL1        0.0876
     28 C         142.1241  145.8496  157.5510 C.ar    1  UNL1        0.1092
     29 N         141.5501  145.6359  158.9203 N.ar    1  UNL1       -0.2385
     30 C         142.5694  144.9924  155.1392 C.1     1  UNL1        0.1020
     31 N         143.1435  145.2059  153.7700 N.1     1  UNL1       -0.1908
@<TRIPOS>BOND
     1     8     7    1
     2     8     1    1
     3     1     2   ar
     4     2     3   ar
     5     3     4   ar
     6     4     5   ar
     7     5    20    1
     8    20    21   am
     9    21    22    2
    10    21    24    1
    11    24    25   ar
    12    25    26   ar
    13    26    27   ar
    14    27    30    1
    15    30    31    3
    16    27    28   ar
    17    28    29   ar
    18     5     6   ar
    19     8     9    1
    20     9    10    1
    21    10    11   ar
    22    11    12   ar
    23    12    13   ar
    24    13    14   ar
    25    14    15    1
    26    15    16    1
    27    15    17    2
    28    17     8    1
    29     6     1   ar
    30    14    10   ar
    31    29    24   ar
    32    20    23    1
    33    16    18    1
    34    16    19    1
@<TRIPOS>MOLECULE
*****
 31 34 0 0 0
SMALL
GASTEIGER

@<TRIPOS>ATOM
      1 C         140.1657  139.0439  165.0317 C.ar    1  UNL1        0.0248
      2 C         140.7801  137.6829  164.8899 C.ar    1  UNL1       -0.0001
      3 C         141.0873  137.1370  163.5269 C.ar    1  UNL1        0.0011
      4 C         140.7799  137.9522  162.3058 C.ar    1  UNL1        0.0147
      5 C         140.1655  139.3132  162.4477 C.ar    1  UNL1        0.0504
      6 C         139.8584  139.8590  163.8107 C.ar    1  UNL1        0.0145
      7 C         138.7034  138.6480  166.2250 C.3     1  UNL1        0.0601
      8 C         139.8586  139.5898  166.3948 C.3     1  UNL1        0.2159
      9 C         139.1502  139.8085  167.6988 C.3     1  UNL1        0.1807
     10 N         139.7037  140.7796  168.6992 N.ar    1  UNL1       -0.2390
     11 N         139.2287  141.2004  170.0583 N.ar    1  UNL1       -0.1673
     12 C         140.1969  142.2127  170.5947 C.ar    1  UNL1        0.1219
     13 C         141.2703  142.4175  169.5671 C.ar    1  UNL1        0.0487
     14 C         140.9654  141.5318  168.3956 C.ar    1  UNL1        0.1608
     15 C         141.6737  141.3130  167.0916 C.2     1  UNL1        0.3304
     16 N         142.9354  142.0652  166.7880 N.pl3   1  UNL1       -0.2452
     17 N         141.1202  140.3420  166.0912 N.2     1  UNL1       -0.0666
     18 H         143.2987  142.7025  167.4446 H       1  UNL1        0.2885
     19 H         143.4003  141.9216  165.9321 H       1  UNL1        0.2885
     20 N         139.8582  140.1283  161.2266 N.am    1  UNL1       -0.2791
     21 C         138.5165  140.0128  160.5659 C.2     1  UNL1        0.2672
     22 O         137.4820  139.0823  161.1262 O.2     1  UNL1       -0.2682
     23 H         140.5371  140.7390  160.8588 H       1  UNL1        0.1552
     24 C         138.2092  140.8279  159.3448 C.ar    1  UNL1        0.1348
     25 C         138.8057  142.1950  159.1858 C.ar    1  UNL1        0.0245
     26 C         138.4983  143.0100  157.9646 C.ar    1  UNL1        0.0135
     27 C         137.5945  142.4581  156.9024 C.ar    1  UNL1        0.0876
     28 C         136.9979  141.0910  157.0614 C.ar    1  UNL1        0.1092
     29 N         137.3053  140.2759  158.2825 N.ar    1  UNL1       -0.2385
     30 C         137.2871  143.2731  155.6813 C.1     1  UNL1        0.1020
     31 N         136.9796  144.0881  154.4601 N.1     1  UNL1       -0.1908
@<TRIPOS>BOND
     1     8     7    1
     2     8     1    1
     3     1     2   ar
     4     2     3   ar
     5     3     4   ar
     6     4     5   ar
     7     5    20    1
     8    20    21   am
     9    21    22    2
    10    21    24    1
    11    24    25   ar
    12    25    26   ar
    13    26    27   ar
    14    27    30    1
    15    30    31    3
    16    27    28   ar
    17    28    29   ar
    18     5     6   ar
    19     8     9    1
    20     9    10    1
    21    10    11   ar
    22    11    12   ar
    23    12    13   ar
    24    13    14   ar
    25    14    15    1
    26    15    16    1
    27    15    17    2
    28    17     8    1
    29     6     1   ar
    30    14    10   ar
    31    29    24   ar
    32    20    23    1
    33    16    18    1
    34    16    19    1
@<TRIPOS>MOLECULE
*****
 31 34 0 0 0
SMALL
GASTEIGER

@<TRIPOS>ATOM
      1 C         142.7529  140.4417  164.6222 C.ar    1  UNL1        0.0248
      2 C         144.1876  140.0934  164.8872 C.ar    1  UNL1       -0.0001
      3 C         145.2223  140.3172  163.8245 C.ar    1  UNL1        0.0011
      4 C         144.8222  140.8893  162.4969 C.ar    1  UNL1        0.0147
      5 C         143.3875  141.2375  162.2319 C.ar    1  UNL1        0.0504
      6 C         142.3528  141.0137  163.2946 C.ar    1  UNL1        0.0145
      7 C         141.1597  139.3554  164.5920 C.3     1  UNL1        0.0601
      8 C         141.7181  140.2179  165.6849 C.3     1  UNL1        0.2159
      9 C         140.4894  139.6946  166.3680 C.3     1  UNL1        0.1807
     10 N         140.1784  140.1114  167.7749 N.ar    1  UNL1       -0.2390
     11 N         139.0494  139.7624  168.6988 N.ar    1  UNL1       -0.1673
     12 C         139.2694  140.4869  169.9937 C.ar    1  UNL1        0.1219
     13 C         140.5343  141.2836  169.8701 C.ar    1  UNL1        0.0487
     14 C         141.0961  141.0516  168.4988 C.ar    1  UNL1        0.1608
     15 C         142.3247  141.5749  167.8157 C.2     1  UNL1        0.3304
     16 N         143.2424  142.5150  168.5396 N.pl3   1  UNL1       -0.2452
     17 N         142.6357  141.1580  166.4088 N.2     1  UNL1       -0.0666
     18 H         143.0383  142.7886  169.4630 H       1  UNL1        0.2885
     19 H         144.0488  142.8585  168.0913 H       1  UNL1        0.2885
     20 N         142.9875  141.8095  160.9042 N.am    1  UNL1       -0.2791
     21 C         142.9975  143.2946  160.6937 C.2     1  UNL1        0.2672
     22 O         143.4075  144.2078  161.8108 O.2     1  UNL1       -0.2682
     23 H         142.7184  141.2102  160.1710 H       1  UNL1        0.1552
     24 C         142.5975  143.8667  159.3660 C.ar    1  UNL1        0.1348
     25 C         142.9799  143.1604  158.0991 C.ar    1  UNL1        0.0245
     26 C         142.5799  143.7326  156.7715 C.ar    1  UNL1        0.0135
     27 C         141.7975  145.0108  156.7106 C.ar    1  UNL1        0.0876
     28 C         141.4150  145.7171  157.9775 C.ar    1  UNL1        0.1092
     29 N         141.8151  145.1450  159.3052 N.ar    1  UNL1       -0.2385
     30 C         141.3974  145.5829  155.3830 C.1     1  UNL1        0.1020
     31 N         140.9975  146.1551  154.0553 N.1     1  UNL1       -0.1908
@<TRIPOS>BOND
     1     8     7    1
     2     8     1    1
     3     1     2   ar
     4     2     3   ar
     5     3     4   ar
     6     4     5   ar
     7     5    20    1
     8    20    21   am
     9    21    22    2
    10    21    24    1
    11    24    25   ar
    12    25    26   ar
    13    26    27   ar
    14    27    30    1
    15    30    31    3
    16    27    28   ar
    17    28    29   ar
    18     5     6   ar
    19     8     9    1
    20     9    10    1
    21    10    11   ar
    22    11    12   ar
    23    12    13   ar
    24    13    14   ar
    25    14    15    1
    26    15    16    1
    27    15    17    2
    28    17     8    1
    29     6     1   ar
    30    14    10   ar
    31    29    24   ar
    32    20    23    1
    33    16    18    1
    34    16    19    1
@<TRIPOS>MOLECULE
*****
 31 34 0 0 0
SMALL
GASTEIGER

@<TRIPOS>ATOM
      1 C         139.9929  139.6337  159.9392 C.ar    1  UNL1        0.0248
      2 C         138.5801  139.5598  159.4410 C.ar    1  UNL1       -0.0001
      3 C         137.4444  139.9300  160.3485 C.ar    1  UNL1        0.0011
      4 C         137.7219  140.3740  161.7541 C.ar    1  UNL1        0.0147
      5 C         139.1348  140.4480  162.2524 C.ar    1  UNL1        0.0504
      6 C         140.2703  140.0778  161.3448 C.ar    1  UNL1        0.0145
      7 C         141.8536  140.1348  160.0143 C.3     1  UNL1        0.0601
      8 C         141.1286  139.2636  159.0318 C.3     1  UNL1        0.2159
      9 C         142.5160  139.1960  158.4656 C.3     1  UNL1        0.1807
     10 N         142.7840  138.3858  157.2320 N.ar    1  UNL1       -0.2390
     11 N         144.0389  138.1333  156.4501 N.ar    1  UNL1       -0.1673
     12 C         143.6950  137.2346  155.2994 C.ar    1  UNL1        0.1219
     13 C         142.2277  136.9317  155.3702 C.ar    1  UNL1        0.0487
     14 C         141.6646  137.6431  156.5647 C.ar    1  UNL1        0.1608
     15 C         140.2772  137.7107  157.1308 C.2     1  UNL1        0.3304
     16 N         139.1578  136.9681  156.4635 N.pl3   1  UNL1       -0.2452
     17 N         140.0092  138.5209  158.3644 N.2     1  UNL1       -0.0666
     18 H         139.3337  136.4363  155.6538 H       1  UNL1        0.2885
     19 H         138.2472  137.0124  156.8351 H       1  UNL1        0.2885
     20 N         139.4121  140.8920  163.6579 N.am    1  UNL1       -0.2791
     21 C         139.2549  139.9259  164.7945 C.2     1  UNL1        0.2672
     22 O         138.8205  138.5156  164.5256 O.2     1  UNL1       -0.2682
     23 H         139.6973  141.8176  163.8345 H       1  UNL1        0.1552
     24 C         139.5323  140.3700  166.2002 C.ar    1  UNL1        0.1348
     25 C         138.9733  139.5942  167.3559 C.ar    1  UNL1        0.0245
     26 C         139.2507  140.0384  168.7616 C.ar    1  UNL1        0.0135
     27 C         140.0870  141.2582  169.0115 C.ar    1  UNL1        0.0876
     28 C         140.6460  142.0341  167.8558 C.ar    1  UNL1        0.1092
     29 N         140.3686  141.5899  166.4501 N.ar    1  UNL1       -0.2385
     30 C         140.3643  141.7024  170.4172 C.1     1  UNL1        0.1020
     31 N         140.6417  142.1465  171.8228 N.1     1  UNL1       -0.1908
@<TRIPOS>BOND
     1     8     7    1
     2     8     1    1
     3     1     2   ar
     4     2     3   ar
     5     3     4   ar
     6     4     5   ar
     7     5    20    1
     8    20    21   am
     9    21    22    2
    10    21    24    1
    11    24    25   ar
    12    25    26   ar
    13    26    27   ar
    14    27    30    1
    15    30    31    3
    16    27    28   ar
    17    28    29   ar
    18     5     6   ar
    19     8     9    1
    20     9    10    1
    21    10    11   ar
    22    11    12   ar
    23    12    13   ar
    24    13    14   ar
    25    14    15    1
    26    15    16    1
    27    15    17    2
    28    17     8    1
    29     6     1   ar
    30    14    10   ar
    31    29    24   ar
    32    20    23    1
    33    16    18    1
    34    16    19    1
