@<TRIPOS>MOLECULE
*****
 29 32 0 0 0
SMALL
GASTEIGER

@<TRIPOS>ATOM
      1 N         143.3344  138.0273  156.9745 N.3     1  UNL1       -0.1595
      2 C         144.0304  139.1936  156.3380 C.3     1  UNL1        0.0955
      3 C         144.0614  140.5208  157.0363 C.3     1  UNL1        0.0209
      4 C         143.3963  140.6816  158.3712 C.3     1  UNL1        0.0228
      5 C         144.0503  141.9314  157.8608 C.3     1  UNL1        0.0233
      6 C         143.8369  143.0142  158.8767 C.3     1  UNL1        0.0950
      7 N         143.0511  142.4337  160.0149 N.am    1  UNL1       -0.2640
      8 C         142.6143  143.1661  161.2488 C.2     1  UNL1        0.3072
      9 O         142.9622  144.6147  161.4238 O.2     1  UNL1       -0.2523
     10 N         141.8296  142.4501  162.3078 N.am    1  UNL1       -0.2626
     11 C         141.4428  143.2739  163.5002 C.3     1  UNL1        0.0964
     12 C         140.6664  142.8559  164.7136 C.3     1  UNL1        0.0389
     13 C         140.0849  141.5110  165.0343 C.3     1  UNL1        0.0739
     14 N         140.1362  140.2518  164.2209 N.3     1  UNL1       -0.2725
     15 C         140.7817  140.0265  162.8857 C.3     1  UNL1        0.0939
     16 C         141.5353  141.0048  162.0344 C.3     1  UNL1        0.1122
     17 C         142.7788  140.9921  159.7024 C.3     1  UNL1        0.0950
     18 C         142.7003  139.5153  159.0077 C.3     1  UNL1        0.0209
     19 C         142.6694  138.1881  158.3094 C.3     1  UNL1        0.0955
     20 C         139.4514  139.0603  164.8220 C.3     1  UNL1        0.0576
     21 C         138.3832  138.8605  165.8560 C.3     1  UNL1        0.0160
     22 C         138.4831  137.3752  165.6722 C.3     1  UNL1        0.0028
     23 C         139.5512  137.5749  164.6382 C.3     1  UNL1        0.0160
     24 S         143.3034  136.7001  156.2762 S.O2    1  UNL1        0.0421
     25 O         141.9252  136.4499  156.8129 O.2     1  UNL1       -0.1573
     26 O         144.6816  136.9503  155.7396 O.2     1  UNL1       -0.1573
     27 C         143.8987  134.1717  156.2220 C.3     1  UNL1        0.0270
     28 C         143.2724  135.3729  155.5779 C.3     1  UNL1        0.1459
     29 C         142.6151  135.2469  154.2355 C.3     1  UNL1        0.0270
@<TRIPOS>BOND
     1    27    28    1
     2    28    29    1
     3    28    24    1
     4    24    25    2
     5    24    26    2
     6    24     1    1
     7     1     2    1
     8     2     3    1
     9     3     4    1
    10     4     5    1
    11     5     6    1
    12     6     7    1
    13     7     8   am
    14     8     9    2
    15     8    10   am
    16    10    11    1
    17    11    12    1
    18    12    13    1
    19    13    14    1
    20    14    20    1
    21    20    21    1
    22    21    22    1
    23    22    23    1
    24    14    15    1
    25    15    16    1
    26     7    17    1
    27     4    18    1
    28    18    19    1
    29    19     1    1
    30    17     4    1
    31    16    10    1
    32    23    20    1
@<TRIPOS>MOLECULE
*****
 29 32 0 0 0
SMALL
GASTEIGER

@<TRIPOS>ATOM
      1 N         138.1460  141.8667  157.6042 N.3     1  UNL1       -0.1595
      2 C         138.8167  143.1512  157.2168 C.3     1  UNL1        0.0955
      3 C         139.5758  143.9400  158.2423 C.3     1  UNL1        0.0209
      4 C         139.6641  143.4443  159.6552 C.3     1  UNL1        0.0228
      5 C         140.3823  144.7394  159.4171 C.3     1  UNL1        0.0233
      6 C         141.0003  145.1720  160.7136 C.3     1  UNL1        0.0950
      7 N         140.6641  144.1442  161.7531 N.am    1  UNL1       -0.2640
      8 C         141.0806  144.1782  163.1937 C.2     1  UNL1        0.3072
      9 O         141.9107  145.3168  163.7077 O.2     1  UNL1       -0.2523
     10 N         140.6668  143.0735  164.1203 N.am    1  UNL1       -0.2626
     11 C         141.1358  143.2042  165.5390 C.3     1  UNL1        0.0964
     12 C         140.8926  142.2778  166.6935 C.3     1  UNL1        0.0389
     13 C         140.1204  140.9921  166.7143 C.3     1  UNL1        0.0739
     14 N         139.4007  140.3151  165.5857 N.3     1  UNL1       -0.2725
     15 C         139.2754  140.7566  164.1577 C.3     1  UNL1        0.0939
     16 C         139.8389  141.9842  163.5055 C.3     1  UNL1        0.1122
     17 C         139.8383  143.0764  161.0989 C.3     1  UNL1        0.0950
     18 C         138.9935  142.1597  160.0427 C.3     1  UNL1        0.0209
     19 C         138.2344  141.3709  159.0172 C.3     1  UNL1        0.0955
     20 C         138.7156  139.0261  165.9309 C.3     1  UNL1        0.0576
     21 C         138.7277  137.6350  165.3697 C.3     1  UNL1        0.0160
     22 C         137.7468  137.2031  166.4191 C.3     1  UNL1        0.0028
     23 C         137.7348  138.5940  166.9804 C.3     1  UNL1        0.0160
     24 S         137.3870  141.0779  156.5788 S.O2    1  UNL1        0.0421
     25 O         138.0641  139.8225  157.0431 O.2     1  UNL1       -0.1573
     26 O         136.7098  142.3332  156.1144 O.2     1  UNL1       -0.1573
     27 C         137.3677  139.4500  154.5540 C.3     1  UNL1        0.0270
     28 C         136.6279  140.2891  155.5533 C.3     1  UNL1        0.1459
     29 C         135.1290  140.3394  155.5270 C.3     1  UNL1        0.0270
@<TRIPOS>BOND
     1    27    28    1
     2    28    29    1
     3    28    24    1
     4    24    25    2
     5    24    26    2
     6    24     1    1
     7     1     2    1
     8     2     3    1
     9     3     4    1
    10     4     5    1
    11     5     6    1
    12     6     7    1
    13     7     8   am
    14     8     9    2
    15     8    10   am
    16    10    11    1
    17    11    12    1
    18    12    13    1
    19    13    14    1
    20    14    20    1
    21    20    21    1
    22    21    22    1
    23    22    23    1
    24    14    15    1
    25    15    16    1
    26     7    17    1
    27     4    18    1
    28    18    19    1
    29    19     1    1
    30    17     4    1
    31    16    10    1
    32    23    20    1
@<TRIPOS>MOLECULE
*****
 29 32 0 0 0
SMALL
GASTEIGER

@<TRIPOS>ATOM
      1 N         143.6162  140.0625  160.9543 N.3     1  UNL1       -0.1595
      2 C         142.8870  141.1931  160.2910 C.3     1  UNL1        0.0955
      3 C         142.1984  140.9730  158.9767 C.3     1  UNL1        0.0209
      4 C         142.2389  139.6223  158.3257 C.3     1  UNL1        0.0228
      5 C         141.4746  140.6519  157.5475 C.3     1  UNL1        0.0233
      6 C         140.9569  139.9999  156.2997 C.3     1  UNL1        0.0950
      7 N         141.4013  138.5672  156.3068 N.am    1  UNL1       -0.2640
      8 C         141.1053  137.5470  155.2478 C.2     1  UNL1        0.3072
      9 O         140.2955  137.9286  154.0442 O.2     1  UNL1       -0.2523
     10 N         141.6192  136.1452  155.3922 N.am    1  UNL1       -0.2626
     11 C         141.2670  135.2049  154.2779 C.3     1  UNL1        0.0964
     12 C         141.6260  133.7562  154.1281 C.3     1  UNL1        0.0389
     13 C         142.4258  132.8901  155.0555 C.3     1  UNL1        0.0739
     14 N         143.0643  133.2588  156.3618 N.3     1  UNL1       -0.2725
     15 C         143.0605  134.5846  157.0633 C.3     1  UNL1        0.0939
     16 C         142.4175  135.8692  156.6318 C.3     1  UNL1        0.1122
     17 C         142.1935  138.3339  157.5590 C.3     1  UNL1        0.0950
     18 C         142.9680  138.4917  158.9890 C.3     1  UNL1        0.0209
     19 C         143.6567  138.7118  160.3033 C.3     1  UNL1        0.0955
     20 C         143.8043  132.1558  157.0587 C.3     1  UNL1        0.0576
     21 C         143.5909  130.6815  157.2351 C.3     1  UNL1        0.0160
     22 C         144.8509  130.5959  158.0443 C.3     1  UNL1        0.0028
     23 C         145.0644  132.0701  157.8680 C.3     1  UNL1        0.0160
     24 S         144.3049  140.2826  162.2685 S.O2    1  UNL1        0.0421
     25 O         144.5825  141.7058  161.8847 O.2     1  UNL1       -0.1573
     26 O         144.0272  138.8594  162.6524 O.2     1  UNL1       -0.1573
     27 C         145.7066  141.7953  163.8486 C.3     1  UNL1        0.0270
     28 C         144.9935  140.5027  163.5828 C.3     1  UNL1        0.1459
     29 C         144.9691  139.4303  164.6312 C.3     1  UNL1        0.0270
@<TRIPOS>BOND
     1    27    28    1
     2    28    29    1
     3    28    24    1
     4    24    25    2
     5    24    26    2
     6    24     1    1
     7     1     2    1
     8     2     3    1
     9     3     4    1
    10     4     5    1
    11     5     6    1
    12     6     7    1
    13     7     8   am
    14     8     9    2
    15     8    10   am
    16    10    11    1
    17    11    12    1
    18    12    13    1
    19    13    14    1
    20    14    20    1
    21    20    21    1
    22    21    22    1
    23    22    23    1
    24    14    15    1
    25    15    16    1
    26     7    17    1
    27     4    18    1
    28    18    19    1
    29    19     1    1
    30    17     4    1
    31    16    10    1
    32    23    20    1
@<TRIPOS>MOLECULE
*****
 29 32 0 0 0
SMALL
GASTEIGER

@<TRIPOS>ATOM
      1 N         138.7044  139.2158  161.7464 N.3     1  UNL1       -0.1595
      2 C         137.9245  140.3532  161.1565 C.3     1  UNL1        0.0955
      3 C         137.9647  140.6032  159.6781 C.3     1  UNL1        0.0209
      4 C         138.7849  139.7158  158.7894 C.3     1  UNL1        0.0228
      5 C         138.0612  140.8085  158.0599 C.3     1  UNL1        0.0233
      6 C         138.3849  140.6851  156.6005 C.3     1  UNL1        0.0950
      7 N         139.3088  139.5160  156.4280 N.am    1  UNL1       -0.2640
      8 C         139.8844  139.0311  155.1305 C.2     1  UNL1        0.3072
      9 O         139.5454  139.7350  153.8500 O.2     1  UNL1       -0.2523
     10 N         140.7990  137.8423  155.1135 N.am    1  UNL1       -0.2626
     11 C         141.3189  137.4404  153.7651 C.3     1  UNL1        0.0964
     12 C         142.2410  136.3096  153.4173 C.3     1  UNL1        0.0389
     13 C         142.8709  135.3013  154.3319 C.3     1  UNL1        0.0739
     14 N         142.7343  135.1749  155.8204 N.3     1  UNL1       -0.2725
     15 C         141.9340  136.0255  156.7617 C.3     1  UNL1        0.0939
     16 C         141.0728  137.2126  156.4471 C.3     1  UNL1        0.1122
     17 C         139.5560  138.9170  157.7808 C.3     1  UNL1        0.0950
     18 C         139.5649  138.5784  159.3792 C.3     1  UNL1        0.0209
     19 C         139.5246  138.3284  160.8577 C.3     1  UNL1        0.0955
     20 C         143.4990  134.0490  156.4508 C.3     1  UNL1        0.0576
     21 C         144.1516  132.7963  155.9458 C.3     1  UNL1        0.0160
     22 C         144.5806  132.4568  157.3424 C.3     1  UNL1        0.0028
     23 C         143.9280  133.7093  157.8475 C.3     1  UNL1        0.0160
     24 S         138.6642  138.9658  163.2248 S.O2    1  UNL1        0.0421
     25 O         139.3470  137.6460  163.0203 O.2     1  UNL1       -0.1573
     26 O         137.9813  140.2856  163.4294 O.2     1  UNL1       -0.1573
     27 C         138.3190  139.8417  165.6463 C.3     1  UNL1        0.0270
     28 C         138.6239  138.7158  164.7033 C.3     1  UNL1        0.1459
     29 C         138.8886  137.3399  165.2388 C.3     1  UNL1        0.0270
@<TRIPOS>BOND
     1    27    28    1
     2    28    29    1
     3    28    24    1
     4    24    25    2
     5    24    26    2
     6    24     1    1
     7     1     2    1
     8     2     3    1
     9     3     4    1
    10     4     5    1
    11     5     6    1
    12     6     7    1
    13     7     8   am
    14     8     9    2
    15     8    10   am
    16    10    11    1
    17    11    12    1
    18    12    13    1
    19    13    14    1
    20    14    20    1
    21    20    21    1
    22    21    22    1
    23    22    23    1
    24    14    15    1
    25    15    16    1
    26     7    17    1
    27     4    18    1
    28    18    19    1
    29    19     1    1
    30    17     4    1
    31    16    10    1
    32    23    20    1
@<TRIPOS>MOLECULE
*****
 29 32 0 0 0
SMALL
GASTEIGER

@<TRIPOS>ATOM
      1 N         142.5252  138.8764  158.3637 N.3     1  UNL1       -0.1595
      2 C         143.4672  139.9802  157.9841 C.3     1  UNL1        0.0955
      3 C         143.7609  141.0833  158.9571 C.3     1  UNL1        0.0209
      4 C         143.1126  141.0826  160.3098 C.3     1  UNL1        0.0228
      5 C         144.0280  142.2470  160.0726 C.3     1  UNL1        0.0233
      6 C         144.0236  143.0991  161.3071 C.3     1  UNL1        0.0950
      7 N         143.1055  142.4613  162.3073 N.am    1  UNL1       -0.2640
      8 C         142.8034  142.9789  163.6823 C.2     1  UNL1        0.3072
      9 O         143.4451  144.2460  164.1645 O.2     1  UNL1       -0.2523
     10 N         141.8595  142.2293  164.5753 N.am    1  UNL1       -0.2626
     11 C         141.6267  142.8325  165.9287 C.3     1  UNL1        0.0964
     12 C         140.7501  142.3310  167.0379 C.3     1  UNL1        0.0389
     13 C         139.8900  141.1026  167.0674 C.3     1  UNL1        0.0739
     14 N         139.6939  140.0721  165.9951 N.3     1  UNL1       -0.2725
     15 C         140.3095  140.0157  164.6285 C.3     1  UNL1        0.0939
     16 C         141.2733  140.9757  163.9966 C.3     1  UNL1        0.1122
     17 C         142.5424  141.2151  161.6908 C.3     1  UNL1        0.0950
     18 C         142.1706  139.9788  160.6894 C.3     1  UNL1        0.0209
     19 C         141.8769  138.8756  159.7163 C.3     1  UNL1        0.0955
     20 C         138.7584  138.9497  166.3344 C.3     1  UNL1        0.0576
     21 C         138.4985  137.5808  165.7788 C.3     1  UNL1        0.0160
     22 C         137.4354  137.3624  166.8142 C.3     1  UNL1        0.0028
     23 C         137.6953  138.7312  167.3699 C.3     1  UNL1        0.0160
     24 S         142.2315  137.7732  157.3906 S.O2    1  UNL1        0.0421
     25 O         140.8087  137.7345  157.8640 O.2     1  UNL1       -0.1573
     26 O         143.6543  137.8120  156.9172 O.2     1  UNL1       -0.1573
     27 C         142.9344  135.5686  156.2094 C.3     1  UNL1        0.0270
     28 C         141.9378  136.6701  156.4175 C.3     1  UNL1        0.1459
     29 C         140.6475  136.6685  155.6526 C.3     1  UNL1        0.0270
@<TRIPOS>BOND
     1    27    28    1
     2    28    29    1
     3    28    24    1
     4    24    25    2
     5    24    26    2
     6    24     1    1
     7     1     2    1
     8     2     3    1
     9     3     4    1
    10     4     5    1
    11     5     6    1
    12     6     7    1
    13     7     8   am
    14     8     9    2
    15     8    10   am
    16    10    11    1
    17    11    12    1
    18    12    13    1
    19    13    14    1
    20    14    20    1
    21    20    21    1
    22    21    22    1
    23    22    23    1
    24    14    15    1
    25    15    16    1
    26     7    17    1
    27     4    18    1
    28    18    19    1
    29    19     1    1
    30    17     4    1
    31    16    10    1
    32    23    20    1
@<TRIPOS>MOLECULE
*****
 29 32 0 0 0
SMALL
GASTEIGER

@<TRIPOS>ATOM
      1 N         143.1363  133.9199  156.2448 N.3     1  UNL1       -0.1595
      2 C         142.7245  134.2933  154.8517 C.3     1  UNL1        0.0955
      3 C         142.5250  135.7352  154.4895 C.3     1  UNL1        0.0209
      4 C         142.7374  136.8037  155.5206 C.3     1  UNL1        0.0228
      5 C         142.3285  137.3266  154.1754 C.3     1  UNL1        0.0233
      6 C         142.2502  138.8219  154.2635 C.3     1  UNL1        0.0950
      7 N         142.6106  139.2233  155.6631 N.am    1  UNL1       -0.2640
      8 C         142.6611  140.6257  156.1929 C.2     1  UNL1        0.3072
      9 O         142.3322  141.7797  155.2928 O.2     1  UNL1       -0.2523
     10 N         143.0404  140.8742  157.6227 N.am    1  UNL1       -0.2626
     11 C         143.0601  142.3117  158.0504 C.3     1  UNL1        0.0964
     12 C         143.3942  142.8824  159.3968 C.3     1  UNL1        0.0389
     13 C         143.7909  142.1564  160.6480 C.3     1  UNL1        0.0739
     14 N         143.9516  140.6804  160.8618 N.3     1  UNL1       -0.2725
     15 C         143.7553  139.5659  159.8772 C.3     1  UNL1        0.0939
     16 C         143.3497  139.6522  158.4358 C.3     1  UNL1        0.1122
     17 C         142.9117  137.9760  156.4400 C.3     1  UNL1        0.0950
     18 C         143.1492  136.4304  156.9137 C.3     1  UNL1        0.0209
     19 C         143.3487  134.9885  157.2758 C.3     1  UNL1        0.0955
     20 C         144.3631  140.2639  162.2428 C.3     1  UNL1        0.0576
     21 C         144.0873  139.0784  163.1196 C.3     1  UNL1        0.0160
     22 C         144.9450  139.6749  164.1959 C.3     1  UNL1        0.0028
     23 C         145.2209  140.8603  163.3192 C.3     1  UNL1        0.0160
     24 S         143.3358  132.4780  156.6069 S.O2    1  UNL1        0.0421
     25 O         144.6624  132.8156  157.2203 O.2     1  UNL1       -0.1573
     26 O         142.0092  132.1404  155.9936 O.2     1  UNL1       -0.1573
     27 C         142.6950  129.9766  156.3200 C.3     1  UNL1        0.0270
     28 C         143.5353  131.0361  156.9690 C.3     1  UNL1        0.1459
     29 C         144.5751  130.6537  157.9802 C.3     1  UNL1        0.0270
@<TRIPOS>BOND
     1    27    28    1
     2    28    29    1
     3    28    24    1
     4    24    25    2
     5    24    26    2
     6    24     1    1
     7     1     2    1
     8     2     3    1
     9     3     4    1
    10     4     5    1
    11     5     6    1
    12     6     7    1
    13     7     8   am
    14     8     9    2
    15     8    10   am
    16    10    11    1
    17    11    12    1
    18    12    13    1
    19    13    14    1
    20    14    20    1
    21    20    21    1
    22    21    22    1
    23    22    23    1
    24    14    15    1
    25    15    16    1
    26     7    17    1
    27     4    18    1
    28    18    19    1
    29    19     1    1
    30    17     4    1
    31    16    10    1
    32    23    20    1
@<TRIPOS>MOLECULE
*****
 29 32 0 0 0
SMALL
GASTEIGER

@<TRIPOS>ATOM
      1 N         137.1785  140.2585  156.0884 N.3     1  UNL1       -0.1595
      2 C         138.1251  139.3987  155.3045 C.3     1  UNL1        0.0955
      3 C         139.4764  139.0670  155.8649 C.3     1  UNL1        0.0209
      4 C         139.8811  139.5950  157.2093 C.3     1  UNL1        0.0228
      5 C         140.9285  138.7518  156.5446 C.3     1  UNL1        0.0233
      6 C         142.1169  138.6839  157.4573 C.3     1  UNL1        0.0950
      7 N         141.8040  139.4852  158.6861 N.am    1  UNL1       -0.2640
      8 C         142.7132  139.6878  159.8617 C.2     1  UNL1        0.3072
      9 O         144.0749  139.0589  159.8739 O.2     1  UNL1       -0.2523
     10 N         142.2608  140.5195  161.0252 N.am    1  UNL1       -0.2626
     11 C         143.2458  140.6585  162.1479 C.3     1  UNL1        0.0964
     12 C         143.0965  141.4145  163.4349 C.3     1  UNL1        0.0389
     13 C         141.9253  142.2181  163.9169 C.3     1  UNL1        0.0739
     14 N         140.6141  142.4643  163.2311 N.3     1  UNL1       -0.2725
     15 C         140.1504  141.9676  161.8939 C.3     1  UNL1        0.0939
     16 C         140.8832  141.1021  160.9122 C.3     1  UNL1        0.1122
     17 C         140.4222  140.0483  158.5328 C.3     1  UNL1        0.0950
     18 C         138.9345  140.4549  157.9932 C.3     1  UNL1        0.0209
     19 C         137.5832  140.7866  157.4328 C.3     1  UNL1        0.0955
     20 C         139.6376  143.3203  163.9818 C.3     1  UNL1        0.0576
     21 C         138.2446  143.1310  164.5052 C.3     1  UNL1        0.0160
     22 C         138.2567  144.5310  165.0435 C.3     1  UNL1        0.0028
     23 C         139.6495  144.7203  164.5202 C.3     1  UNL1        0.0160
     24 S         135.8273  140.5903  155.5280 S.O2    1  UNL1        0.0421
     25 O         135.2023  140.2924  156.8587 O.2     1  UNL1       -0.1573
     26 O         136.4523  140.8881  154.1974 O.2     1  UNL1       -0.1573
     27 C         134.3499  141.4167  153.5572 C.3     1  UNL1        0.0270
     28 C         134.4760  140.9220  154.9676 C.3     1  UNL1        0.1459
     29 C         133.2509  140.7591  155.8176 C.3     1  UNL1        0.0270
@<TRIPOS>BOND
     1    27    28    1
     2    28    29    1
     3    28    24    1
     4    24    25    2
     5    24    26    2
     6    24     1    1
     7     1     2    1
     8     2     3    1
     9     3     4    1
    10     4     5    1
    11     5     6    1
    12     6     7    1
    13     7     8   am
    14     8     9    2
    15     8    10   am
    16    10    11    1
    17    11    12    1
    18    12    13    1
    19    13    14    1
    20    14    20    1
    21    20    21    1
    22    21    22    1
    23    22    23    1
    24    14    15    1
    25    15    16    1
    26     7    17    1
    27     4    18    1
    28    18    19    1
    29    19     1    1
    30    17     4    1
    31    16    10    1
    32    23    20    1
@<TRIPOS>MOLECULE
*****
 29 32 0 0 0
SMALL
GASTEIGER

@<TRIPOS>ATOM
      1 N         139.6112  146.0816  155.0312 N.3     1  UNL1       -0.1595
      2 C         139.8526  145.1417  153.8874 C.3     1  UNL1        0.0955
      3 C         139.8158  143.6594  154.1140 C.3     1  UNL1        0.0209
      4 C         139.5377  143.1169  155.4845 C.3     1  UNL1        0.0228
      5 C         139.7587  142.0600  154.4433 C.3     1  UNL1        0.0233
      6 C         139.6310  140.7211  155.1074 C.3     1  UNL1        0.0950
      7 N         139.3311  140.9505  156.5591 N.am    1  UNL1       -0.2640
      8 C         139.1250  139.8861  157.5958 C.2     1  UNL1        0.3072
      9 O         139.2134  138.4387  157.2123 O.2     1  UNL1       -0.2523
     10 N         138.8306  140.2692  159.0158 N.am    1  UNL1       -0.2626
     11 C         138.6416  139.1289  159.9717 C.3     1  UNL1        0.0964
     12 C         138.3395  139.1796  161.4401 C.3     1  UNL1        0.0389
     13 C         138.1516  140.3833  162.3152 C.3     1  UNL1        0.0739
     14 N         138.2195  141.8336  161.9380 N.3     1  UNL1       -0.2725
     15 C         138.4921  142.4382  160.5926 C.3     1  UNL1        0.0939
     16 C         138.7640  141.7421  159.2922 C.3     1  UNL1        0.1122
     17 C         139.2734  142.4312  156.7921 C.3     1  UNL1        0.0950
     18 C         139.2963  144.0567  156.6283 C.3     1  UNL1        0.0209
     19 C         139.3331  145.5390  156.4017 C.3     1  UNL1        0.0955
     20 C         137.9837  142.8079  163.0538 C.3     1  UNL1        0.0576
     21 C         137.8251  142.6989  164.5415 C.3     1  UNL1        0.0160
     22 C         137.6502  144.1859  164.6317 C.3     1  UNL1        0.0028
     23 C         137.8088  144.2950  163.1442 C.3     1  UNL1        0.0160
     24 S         139.6480  147.5639  154.8046 S.O2    1  UNL1        0.0421
     25 O         140.4699  147.3543  153.5674 O.2     1  UNL1       -0.1573
     26 O         138.8261  147.7734  156.0418 O.2     1  UNL1       -0.1573
     27 C         138.8102  149.9516  155.3937 C.3     1  UNL1        0.0270
     28 C         139.6848  149.0462  154.5780 C.3     1  UNL1        0.1459
     29 C         140.5961  149.6232  153.5356 C.3     1  UNL1        0.0270
@<TRIPOS>BOND
     1    27    28    1
     2    28    29    1
     3    28    24    1
     4    24    25    2
     5    24    26    2
     6    24     1    1
     7     1     2    1
     8     2     3    1
     9     3     4    1
    10     4     5    1
    11     5     6    1
    12     6     7    1
    13     7     8   am
    14     8     9    2
    15     8    10   am
    16    10    11    1
    17    11    12    1
    18    12    13    1
    19    13    14    1
    20    14    20    1
    21    20    21    1
    22    21    22    1
    23    22    23    1
    24    14    15    1
    25    15    16    1
    26     7    17    1
    27     4    18    1
    28    18    19    1
    29    19     1    1
    30    17     4    1
    31    16    10    1
    32    23    20    1
@<TRIPOS>MOLECULE
*****
 29 32 0 0 0
SMALL
GASTEIGER

@<TRIPOS>ATOM
      1 N         144.0728  141.0859  157.9568 N.3     1  UNL1       -0.1595
      2 C         143.1616  140.3602  157.0119 C.3     1  UNL1        0.0955
      3 C         141.9184  139.6985  157.5284 C.3     1  UNL1        0.0209
      4 C         141.5865  139.7625  158.9898 C.3     1  UNL1        0.0228
      5 C         140.5852  139.0047  158.1694 C.3     1  UNL1        0.0233
      6 C         139.5063  138.5162  159.0899 C.3     1  UNL1        0.0950
      7 N         139.8407  138.9722  160.4792 N.am    1  UNL1       -0.2640
      8 C         139.0316  138.7049  161.7137 C.2     1  UNL1        0.3072
      9 O         137.7599  137.9150  161.6204 O.2     1  UNL1       -0.2523
     10 N         139.4942  139.2276  163.0414 N.am    1  UNL1       -0.2626
     11 C         138.6126  138.9044  164.2111 C.3     1  UNL1        0.0964
     12 C         138.7962  139.2782  165.6521 C.3     1  UNL1        0.0389
     13 C         139.9069  140.0674  166.2793 C.3     1  UNL1        0.0739
     14 N         141.1083  140.6778  165.6205 N.3     1  UNL1       -0.2725
     15 C         141.4957  140.6497  164.1716 C.3     1  UNL1        0.0939
     16 C         140.7774  140.0044  163.0239 C.3     1  UNL1        0.1122
     17 C         141.1264  139.7424  160.4173 C.3     1  UNL1        0.0950
     18 C         142.4978  140.4882  159.9347 C.3     1  UNL1        0.0209
     19 C         143.7409  141.1499  159.4182 C.3     1  UNL1        0.0955
     20 C         142.0463  141.4135  166.5308 C.3     1  UNL1        0.0576
     21 C         142.1332  141.6322  168.0123 C.3     1  UNL1        0.0160
     22 C         143.3729  142.4540  167.8183 C.3     1  UNL1        0.0028
     23 C         143.2861  142.2354  166.3369 C.3     1  UNL1        0.0160
     24 S         145.3160  141.7476  157.4404 S.O2    1  UNL1        0.0421
     25 O         145.4104  140.7203  156.3515 O.2     1  UNL1       -0.1573
     26 O         145.2215  142.7749  158.5293 O.2     1  UNL1       -0.1573
     27 C         147.4436  143.1784  157.8599 C.3     1  UNL1        0.0270
     28 C         146.5591  142.4093  156.9239 C.3     1  UNL1        0.1459
     29 C         146.9178  142.3019  155.4714 C.3     1  UNL1        0.0270
@<TRIPOS>BOND
     1    27    28    1
     2    28    29    1
     3    28    24    1
     4    24    25    2
     5    24    26    2
     6    24     1    1
     7     1     2    1
     8     2     3    1
     9     3     4    1
    10     4     5    1
    11     5     6    1
    12     6     7    1
    13     7     8   am
    14     8     9    2
    15     8    10   am
    16    10    11    1
    17    11    12    1
    18    12    13    1
    19    13    14    1
    20    14    20    1
    21    20    21    1
    22    21    22    1
    23    22    23    1
    24    14    15    1
    25    15    16    1
    26     7    17    1
    27     4    18    1
    28    18    19    1
    29    19     1    1
    30    17     4    1
    31    16    10    1
    32    23    20    1
