@<TRIPOS>MOLECULE
*****
 36 38 0 0 0
SMALL
GASTEIGER

@<TRIPOS>ATOM
      1 S         139.4709  138.4379  161.9133 S.O2    1  UNL1        0.0456
      2 O         140.1955  137.3617  162.6660 O.2     1  UNL1       -0.1572
      3 O         138.7462  139.5142  161.1607 O.2     1  UNL1       -0.1572
      4 N         140.4430  138.2994  160.7794 N.3     1  UNL1       -0.1592
      5 C         141.8731  137.9418  161.0569 C.3     1  UNL1        0.0979
      6 C         142.8451  137.8033  159.9229 C.3     1  UNL1        0.0487
      7 C         142.3872  138.0225  158.5115 C.3     1  UNL1        0.1186
      8 C         140.9571  138.3801  158.2340 C.3     1  UNL1        0.0487
      9 C         139.9851  138.5186  159.3679 C.3     1  UNL1        0.0979
     10 O         143.3593  137.8840  157.3775 O.3     1  UNL1       -0.3514
     11 C         142.9316  137.2263  156.0990 C.3     1  UNL1        0.1693
     12 C         142.7485  135.7385  156.0457 C.ar    1  UNL1        0.0179
     13 C         143.8000  134.8325  156.6144 C.ar    1  UNL1       -0.0001
     14 C         143.6169  133.3447  156.5610 C.ar    1  UNL1        0.0112
     15 C         142.3822  132.7629  155.9390 C.ar    1  UNL1        0.0585
     16 CL        142.1991  131.2750  155.8856 Cl      1  UNL1       -0.0822
     17 C         141.3307  133.6688  155.3702 C.ar    1  UNL1        0.0225
     18 C         141.5138  135.1566  155.4236 C.ar    1  UNL1        0.0569
     19 CL        140.4622  136.0626  154.8549 Cl      1  UNL1       -0.0825
     20 C         138.4988  138.5764  163.0473 C.3     1  UNL1        0.1913
     21 C         138.6612  139.6863  164.0431 C.3     1  UNL1        0.1293
     22 N         137.9537  140.9921  163.8328 N.am    1  UNL1       -0.1645
     23 O         136.7348  141.0527  162.9606 O.3     1  UNL1       -0.2914
     24 C         138.4650  142.2373  164.4947 C.2     1  UNL1        0.3268
     25 O         137.7573  143.5431  164.2844 O.2     1  UNL1       -0.2627
     26 H         136.5411  140.1679  162.6137 H       1  UNL1        0.2417
     27 C         139.5313  139.4904  165.2493 C.3     1  UNL1        0.0318
     28 C         137.7233  138.4886  166.8233 C.3     1  UNL1        0.0080
     29 C         138.9117  139.3789  166.6108 C.3     1  UNL1        0.0604
     30 C         139.4805  140.1576  167.7597 C.ar    1  UNL1        0.1390
     31 N         139.2743  139.6780  169.1659 N.ar    1  UNL1       -0.2268
     32 C         139.8431  140.4567  170.3149 C.ar    1  UNL1        0.1314
     33 C         140.6181  141.7149  170.0576 C.ar    1  UNL1        0.1783
     34 F         141.1869  142.4936  171.2066 F       1  UNL1       -0.2009
     35 C         140.8243  142.1945  168.6513 C.ar    1  UNL1        0.1314
     36 N         140.2555  141.4158  167.5024 N.ar    1  UNL1       -0.2268
@<TRIPOS>BOND
     1    29    28    1
     2    29    27    1
     3    21    27    1
     4    21    20    1
     5    20     1    1
     6     1     2    2
     7     1     3    2
     8     1     4    1
     9     4     5    1
    10     5     6    1
    11     6     7    1
    12     7    10    1
    13    10    11    1
    14    11    12    1
    15    12    13   ar
    16    13    14   ar
    17    14    15   ar
    18    15    16    1
    19    15    17   ar
    20    17    18   ar
    21    18    19    1
    22     7     8    1
    23     8     9    1
    24    21    22    1
    25    22    23    1
    26    22    24   am
    27    24    25    2
    28    29    30    1
    29    30    31   ar
    30    31    32   ar
    31    32    33   ar
    32    33    34    1
    33    33    35   ar
    34    35    36   ar
    35     9     4    1
    36    36    30   ar
    37    18    12   ar
    38    23    26    1
@<TRIPOS>MOLECULE
*****
 36 38 0 0 0
SMALL
GASTEIGER

@<TRIPOS>ATOM
      1 S         142.4508  140.0633  166.8846 S.O2    1  UNL1        0.0456
      2 O         142.6603  141.4053  167.5210 O.2     1  UNL1       -0.1572
      3 O         142.2412  138.7213  166.2481 O.2     1  UNL1       -0.1572
      4 N         143.2443  140.5055  165.6909 N.3     1  UNL1       -0.1592
      5 C         143.6250  141.9481  165.5359 C.3     1  UNL1        0.0979
      6 C         144.4185  142.3902  164.3423 C.3     1  UNL1        0.0487
      7 C         144.8313  141.3899  163.3036 C.3     1  UNL1        0.1186
      8 C         144.4506  139.9473  163.4586 C.3     1  UNL1        0.0487
      9 C         143.6571  139.5051  164.6522 C.3     1  UNL1        0.0979
     10 O         145.6248  141.8321  162.1099 O.3     1  UNL1       -0.3514
     11 C         144.9482  142.5631  160.9885 C.3     1  UNL1        0.1693
     12 C         143.4673  142.4285  160.7911 C.ar    1  UNL1        0.0179
     13 C         142.5525  143.5480  161.1909 C.ar    1  UNL1       -0.0001
     14 C         141.0717  143.4134  160.9935 C.ar    1  UNL1        0.0112
     15 C         140.5057  142.1593  160.3962 C.ar    1  UNL1        0.0585
     16 CL        139.0248  142.0247  160.1988 Cl      1  UNL1       -0.0822
     17 C         141.4204  141.0398  159.9963 C.ar    1  UNL1        0.0225
     18 C         142.9012  141.1744  160.1938 C.ar    1  UNL1        0.0569
     19 CL        143.8161  140.0549  159.7939 Cl      1  UNL1       -0.0825
     20 C         141.6573  139.6211  168.0782 C.3     1  UNL1        0.1913
     21 C         140.3233  140.2443  168.3648 C.3     1  UNL1        0.1293
     22 N         139.9541  140.6123  169.7712 N.am    1  UNL1       -0.1645
     23 O         138.8031  139.9285  170.4479 O.3     1  UNL1       -0.2914
     24 C         140.7357  141.6641  170.5011 C.2     1  UNL1        0.3268
     25 O         140.3664  142.0321  171.9077 O.2     1  UNL1       -0.2627
     26 H         138.4099  139.2813  169.8418 H       1  UNL1        0.2417
     27 C         139.3586  140.4995  167.2448 C.3     1  UNL1        0.0318
     28 C         137.6695  138.5414  167.4954 C.3     1  UNL1        0.0080
     29 C         138.5916  139.3603  166.6415 C.3     1  UNL1        0.0604
     30 C         138.7466  139.0401  165.1843 C.ar    1  UNL1        0.1390
     31 N         138.1462  139.9451  164.1496 N.ar    1  UNL1       -0.2268
     32 C         138.3013  139.6249  162.6924 C.ar    1  UNL1        0.1314
     33 C         139.0566  138.3998  162.2699 C.ar    1  UNL1        0.1783
     34 F         139.2116  138.0796  160.8127 F       1  UNL1       -0.2009
     35 C         139.6570  137.4948  163.3047 C.ar    1  UNL1        0.1314
     36 N         139.5020  137.8150  164.7619 N.ar    1  UNL1       -0.2268
@<TRIPOS>BOND
     1    29    28    1
     2    29    27    1
     3    21    27    1
     4    21    20    1
     5    20     1    1
     6     1     2    2
     7     1     3    2
     8     1     4    1
     9     4     5    1
    10     5     6    1
    11     6     7    1
    12     7    10    1
    13    10    11    1
    14    11    12    1
    15    12    13   ar
    16    13    14   ar
    17    14    15   ar
    18    15    16    1
    19    15    17   ar
    20    17    18   ar
    21    18    19    1
    22     7     8    1
    23     8     9    1
    24    21    22    1
    25    22    23    1
    26    22    24   am
    27    24    25    2
    28    29    30    1
    29    30    31   ar
    30    31    32   ar
    31    32    33   ar
    32    33    34    1
    33    33    35   ar
    34    35    36   ar
    35     9     4    1
    36    36    30   ar
    37    18    12   ar
    38    23    26    1
@<TRIPOS>MOLECULE
*****
 36 38 0 0 0
SMALL
GASTEIGER

@<TRIPOS>ATOM
      1 S         137.9398  139.7341  161.7731 S.O2    1  UNL1        0.0456
      2 O         138.8746  138.6026  161.4638 O.2     1  UNL1       -0.1572
      3 O         137.0050  140.8657  162.0824 O.2     1  UNL1       -0.1572
      4 N         138.3550  139.6833  163.2137 N.3     1  UNL1       -0.1592
      5 C         138.8212  138.3905  163.8147 C.3     1  UNL1        0.0979
      6 C         139.2363  138.3397  165.2551 C.3     1  UNL1        0.0487
      7 C         139.1853  139.5817  166.0946 C.3     1  UNL1        0.1186
      8 C         138.7191  140.8745  165.4936 C.3     1  UNL1        0.0487
      9 C         138.3040  140.9253  164.0531 C.3     1  UNL1        0.0979
     10 O         139.6005  139.5309  167.5352 O.3     1  UNL1       -0.3514
     11 C         140.9968  139.9138  167.9272 C.3     1  UNL1        0.1693
     12 C         142.0631  140.0363  166.8793 C.ar    1  UNL1        0.0179
     13 C         142.8106  138.8183  166.4238 C.ar    1  UNL1       -0.0001
     14 C         143.8769  138.9409  165.3760 C.ar    1  UNL1        0.0112
     15 C         144.1957  140.2816  164.7836 C.ar    1  UNL1        0.0585
     16 CL        145.2620  140.4042  163.7358 Cl      1  UNL1       -0.0822
     17 C         143.4482  141.4997  165.2391 C.ar    1  UNL1        0.0225
     18 C         142.3819  141.3771  166.2869 C.ar    1  UNL1        0.0569
     19 CL        141.6344  142.5952  166.7425 Cl      1  UNL1       -0.0825
     20 C         137.5246  139.7849  160.3326 C.3     1  UNL1        0.1913
     21 C         138.4050  140.4579  159.3217 C.3     1  UNL1        0.1293
     22 N         139.1191  139.6404  158.2865 N.am    1  UNL1       -0.1645
     23 O         139.6883  138.3010  158.6502 O.3     1  UNL1       -0.2914
     24 C         139.2642  140.1621  156.8877 C.2     1  UNL1        0.3268
     25 O         139.9784  139.3445  155.8525 O.2     1  UNL1       -0.2627
     26 H         139.5085  138.1164  159.5853 H       1  UNL1        0.2417
     27 C         138.5712  141.9485  159.3459 C.3     1  UNL1        0.0318
     28 C         141.1088  142.4946  159.4575 C.3     1  UNL1        0.0080
     29 C         139.7377  142.5616  160.0623 C.3     1  UNL1        0.0604
     30 C         139.5333  143.2415  161.3836 C.ar    1  UNL1        0.1390
     31 N         138.1933  143.8198  161.7301 N.ar    1  UNL1       -0.2268
     32 C         137.9888  144.4998  163.0514 C.ar    1  UNL1        0.1314
     33 C         139.1243  144.6016  164.0262 C.ar    1  UNL1        0.1783
     34 F         138.9199  145.2815  165.3474 F       1  UNL1       -0.2009
     35 C         140.4644  144.0233  163.6796 C.ar    1  UNL1        0.1314
     36 N         140.6688  143.3433  162.3584 N.ar    1  UNL1       -0.2268
@<TRIPOS>BOND
     1    29    28    1
     2    29    27    1
     3    21    27    1
     4    21    20    1
     5    20     1    1
     6     1     2    2
     7     1     3    2
     8     1     4    1
     9     4     5    1
    10     5     6    1
    11     6     7    1
    12     7    10    1
    13    10    11    1
    14    11    12    1
    15    12    13   ar
    16    13    14   ar
    17    14    15   ar
    18    15    16    1
    19    15    17   ar
    20    17    18   ar
    21    18    19    1
    22     7     8    1
    23     8     9    1
    24    21    22    1
    25    22    23    1
    26    22    24   am
    27    24    25    2
    28    29    30    1
    29    30    31   ar
    30    31    32   ar
    31    32    33   ar
    32    33    34    1
    33    33    35   ar
    34    35    36   ar
    35     9     4    1
    36    36    30   ar
    37    18    12   ar
    38    23    26    1
@<TRIPOS>MOLECULE
*****
 36 38 0 0 0
SMALL
GASTEIGER

@<TRIPOS>ATOM
      1 S         142.6257  140.0818  166.9196 S.O2    1  UNL1        0.0456
      2 O         142.8251  141.4362  167.5327 O.2     1  UNL1       -0.1572
      3 O         142.4263  138.7274  166.3066 O.2     1  UNL1       -0.1572
      4 N         143.3640  140.5286  165.6927 N.3     1  UNL1       -0.1592
      5 C         143.6723  141.9826  165.4907 C.3     1  UNL1        0.0979
      6 C         144.4105  142.4293  164.2638 C.3     1  UNL1        0.0487
      7 C         144.8404  141.4221  163.2388 C.3     1  UNL1        0.1186
      8 C         144.5321  139.9681  163.4408 C.3     1  UNL1        0.0487
      9 C         143.7939  139.5213  164.6677 C.3     1  UNL1        0.0979
     10 O         145.5787  141.8689  162.0118 O.3     1  UNL1       -0.3514
     11 C         144.8679  142.6630  160.9564 C.3     1  UNL1        0.1693
     12 C         143.3735  142.5941  160.8451 C.ar    1  UNL1        0.0179
     13 C         142.5317  143.7354  161.3337 C.ar    1  UNL1       -0.0001
     14 C         141.0374  143.6665  161.2224 C.ar    1  UNL1        0.0112
     15 C         140.3850  142.4564  160.6225 C.ar    1  UNL1        0.0585
     16 CL        138.8907  142.3875  160.5112 Cl      1  UNL1       -0.0822
     17 C         141.2269  141.3151  160.1339 C.ar    1  UNL1        0.0225
     18 C         142.7211  141.3840  160.2452 C.ar    1  UNL1        0.0569
     19 CL        143.5630  140.2427  159.7565 Cl      1  UNL1       -0.0825
     20 C         141.8875  139.6351  168.1466 C.3     1  UNL1        0.1913
     21 C         140.5828  140.2783  168.5127 C.3     1  UNL1        0.1293
     22 N         140.5538  141.4052  169.5022 N.am    1  UNL1       -0.1645
     23 O         140.4692  142.8236  169.0214 O.3     1  UNL1       -0.2914
     24 C         140.6093  141.1138  170.9726 C.2     1  UNL1        0.3268
     25 O         140.5803  142.2407  171.9622 O.2     1  UNL1       -0.2627
     26 H         140.4417  142.8352  168.0519 H       1  UNL1        0.2417
     27 C         139.3071  139.7946  167.8892 C.3     1  UNL1        0.0318
     28 C         139.0796  138.5535  165.6181 C.3     1  UNL1        0.0080
     29 C         139.1390  139.8328  166.3991 C.3     1  UNL1        0.0604
     30 C         139.0303  141.1501  165.6901 C.ar    1  UNL1        0.1390
     31 N         138.0307  141.3273  164.5860 N.ar    1  UNL1       -0.2268
     32 C         137.9220  142.6447  163.8769 C.ar    1  UNL1        0.1314
     33 C         138.8130  143.7849  164.2721 C.ar    1  UNL1        0.1783
     34 F         138.7043  145.1022  163.5630 F       1  UNL1       -0.2009
     35 C         139.8127  143.6076  165.3763 C.ar    1  UNL1        0.1314
     36 N         139.9213  142.2903  166.0853 N.ar    1  UNL1       -0.2268
@<TRIPOS>BOND
     1    29    28    1
     2    29    27    1
     3    21    27    1
     4    21    20    1
     5    20     1    1
     6     1     2    2
     7     1     3    2
     8     1     4    1
     9     4     5    1
    10     5     6    1
    11     6     7    1
    12     7    10    1
    13    10    11    1
    14    11    12    1
    15    12    13   ar
    16    13    14   ar
    17    14    15   ar
    18    15    16    1
    19    15    17   ar
    20    17    18   ar
    21    18    19    1
    22     7     8    1
    23     8     9    1
    24    21    22    1
    25    22    23    1
    26    22    24   am
    27    24    25    2
    28    29    30    1
    29    30    31   ar
    30    31    32   ar
    31    32    33   ar
    32    33    34    1
    33    33    35   ar
    34    35    36   ar
    35     9     4    1
    36    36    30   ar
    37    18    12   ar
    38    23    26    1
@<TRIPOS>MOLECULE
*****
 36 38 0 0 0
SMALL
GASTEIGER

@<TRIPOS>ATOM
      1 S         138.7365  138.9726  162.5288 S.O2    1  UNL1        0.0456
      2 O         138.8776  138.1191  161.3034 O.2     1  UNL1       -0.1572
      3 O         138.5955  139.8261  163.7542 O.2     1  UNL1       -0.1572
      4 N         138.8678  140.2058  161.6849 N.3     1  UNL1       -0.1592
      5 C         139.7530  140.1952  160.4740 C.3     1  UNL1        0.0979
      6 C         139.8843  141.4284  159.6302 C.3     1  UNL1        0.0487
      7 C         139.1304  142.6721  159.9973 C.3     1  UNL1        0.1186
      8 C         138.2452  142.6827  161.2082 C.3     1  UNL1        0.0487
      9 C         138.1139  141.4496  162.0520 C.3     1  UNL1        0.0979
     10 O         139.2617  143.9053  159.1534 O.3     1  UNL1       -0.3514
     11 C         140.4137  144.8417  159.3679 C.3     1  UNL1        0.1693
     12 C         141.2270  144.7546  160.6252 C.ar    1  UNL1        0.0179
     13 C         142.4794  143.9295  160.6527 C.ar    1  UNL1       -0.0001
     14 C         143.2927  143.8424  161.9100 C.ar    1  UNL1        0.0112
     15 C         142.8536  144.5803  163.1399 C.ar    1  UNL1        0.0585
     16 CL        143.6670  144.4932  164.3973 Cl      1  UNL1       -0.0822
     17 C         141.6012  145.4053  163.1125 C.ar    1  UNL1        0.0225
     18 C         140.7879  145.4924  161.8552 C.ar    1  UNL1        0.0569
     19 CL        139.5354  146.3175  161.8277 Cl      1  UNL1       -0.0825
     20 C         138.6053  137.7395  163.3726 C.3     1  UNL1        0.1913
     21 C         139.3617  137.6298  164.6632 C.3     1  UNL1        0.1293
     22 N         138.7077  138.0304  165.9523 N.am    1  UNL1       -0.1645
     23 O         139.0979  139.3135  166.6242 O.3     1  UNL1       -0.2914
     24 C         137.6634  137.1480  166.5694 C.2     1  UNL1        0.3268
     25 O         137.0094  137.5486  167.8585 O.2     1  UNL1       -0.2627
     26 H         139.7799  139.7596  166.0981 H       1  UNL1        0.2417
     27 C         140.7723  137.1194  164.6647 C.3     1  UNL1        0.0318
     28 C         142.4998  138.6496  165.8582 C.3     1  UNL1        0.0080
     29 C         141.9189  138.0840  164.5961 C.3     1  UNL1        0.0604
     30 C         142.4847  138.4831  163.2655 C.ar    1  UNL1        0.1390
     31 N         143.3628  139.6943  163.1567 N.ar    1  UNL1       -0.2268
     32 C         143.9286  140.0934  161.8260 C.ar    1  UNL1        0.1314
     33 C         143.6164  139.2812  160.6042 C.ar    1  UNL1        0.1783
     34 F         144.1822  139.6802  159.2736 F       1  UNL1       -0.2009
     35 C         142.7383  138.0699  160.7130 C.ar    1  UNL1        0.1314
     36 N         142.1725  137.6708  162.0437 N.ar    1  UNL1       -0.2268
@<TRIPOS>BOND
     1    29    28    1
     2    29    27    1
     3    21    27    1
     4    21    20    1
     5    20     1    1
     6     1     2    2
     7     1     3    2
     8     1     4    1
     9     4     5    1
    10     5     6    1
    11     6     7    1
    12     7    10    1
    13    10    11    1
    14    11    12    1
    15    12    13   ar
    16    13    14   ar
    17    14    15   ar
    18    15    16    1
    19    15    17   ar
    20    17    18   ar
    21    18    19    1
    22     7     8    1
    23     8     9    1
    24    21    22    1
    25    22    23    1
    26    22    24   am
    27    24    25    2
    28    29    30    1
    29    30    31   ar
    30    31    32   ar
    31    32    33   ar
    32    33    34    1
    33    33    35   ar
    34    35    36   ar
    35     9     4    1
    36    36    30   ar
    37    18    12   ar
    38    23    26    1
@<TRIPOS>MOLECULE
*****
 36 38 0 0 0
SMALL
GASTEIGER

@<TRIPOS>ATOM
      1 S         142.4268  138.3333  160.9042 S.O2    1  UNL1        0.0456
      2 O         141.2923  138.2020  159.9317 O.2     1  UNL1       -0.1572
      3 O         143.5612  138.4645  161.8767 O.2     1  UNL1       -0.1572
      4 N         141.4785  138.0970  162.0422 N.3     1  UNL1       -0.1592
      5 C         140.0053  137.9901  161.7811 C.3     1  UNL1        0.0979
      6 C         139.0571  137.7538  162.9191 C.3     1  UNL1        0.0487
      7 C         139.5821  137.6245  164.3182 C.3     1  UNL1        0.1186
      8 C         141.0553  137.7314  164.5794 C.3     1  UNL1        0.0487
      9 C         142.0035  137.9677  163.4414 C.3     1  UNL1        0.0979
     10 O         138.6339  137.3882  165.4563 O.3     1  UNL1       -0.3514
     11 C         138.1433  138.5445  166.2761 C.3     1  UNL1        0.1693
     12 C         138.5821  139.9398  165.9432 C.ar    1  UNL1        0.0179
     13 C         137.9413  140.6759  164.8042 C.ar    1  UNL1       -0.0001
     14 C         138.3801  142.0710  164.4712 C.ar    1  UNL1        0.0112
     15 C         139.4599  142.7301  165.2773 C.ar    1  UNL1        0.0585
     16 CL        139.8988  144.1253  164.9443 Cl      1  UNL1       -0.0822
     17 C         140.1008  141.9940  166.4163 C.ar    1  UNL1        0.0225
     18 C         139.6619  140.5988  166.7492 C.ar    1  UNL1        0.0569
     19 CL        140.3028  139.8626  167.8883 Cl      1  UNL1       -0.0825
     20 C         143.3749  138.5695  159.7662 C.3     1  UNL1        0.1913
     21 C         143.1614  139.7305  158.8407 C.3     1  UNL1        0.1293
     22 N         143.2172  139.5261  157.3558 N.am    1  UNL1       -0.1645
     23 O         144.5430  139.4030  156.6650 O.3     1  UNL1       -0.2914
     24 C         141.9473  139.4447  156.5617 C.2     1  UNL1        0.3268
     25 O         142.0032  139.2403  155.0767 O.2     1  UNL1       -0.2627
     26 H         145.2562  139.4771  157.3183 H       1  UNL1        0.2417
     27 C         142.8920  141.0960  159.4003 C.3     1  UNL1        0.0318
     28 C         144.9053  142.5419  158.6216 C.3     1  UNL1        0.0080
     29 C         144.0344  142.0131  159.7226 C.3     1  UNL1        0.0604
     30 C         144.3058  142.4016  161.1457 C.ar    1  UNL1        0.1390
     31 N         145.0823  141.4806  162.0394 N.ar    1  UNL1       -0.2268
     32 C         145.3538  141.8691  163.4626 C.ar    1  UNL1        0.1314
     33 C         144.8487  143.1785  163.9921 C.ar    1  UNL1        0.1783
     34 F         145.1201  143.5669  165.4152 F       1  UNL1       -0.2009
     35 C         144.0721  144.0994  163.0983 C.ar    1  UNL1        0.1314
     36 N         143.8007  143.7110  161.6752 N.ar    1  UNL1       -0.2268
@<TRIPOS>BOND
     1    29    28    1
     2    29    27    1
     3    21    27    1
     4    21    20    1
     5    20     1    1
     6     1     2    2
     7     1     3    2
     8     1     4    1
     9     4     5    1
    10     5     6    1
    11     6     7    1
    12     7    10    1
    13    10    11    1
    14    11    12    1
    15    12    13   ar
    16    13    14   ar
    17    14    15   ar
    18    15    16    1
    19    15    17   ar
    20    17    18   ar
    21    18    19    1
    22     7     8    1
    23     8     9    1
    24    21    22    1
    25    22    23    1
    26    22    24   am
    27    24    25    2
    28    29    30    1
    29    30    31   ar
    30    31    32   ar
    31    32    33   ar
    32    33    34    1
    33    33    35   ar
    34    35    36   ar
    35     9     4    1
    36    36    30   ar
    37    18    12   ar
    38    23    26    1
@<TRIPOS>MOLECULE
*****
 36 38 0 0 0
SMALL
GASTEIGER

@<TRIPOS>ATOM
      1 S         139.0829  142.3309  160.8599 S.O2    1  UNL1        0.0456
      2 O         140.2826  141.4548  160.6522 O.2     1  UNL1       -0.1572
      3 O         137.8832  143.2069  161.0676 O.2     1  UNL1       -0.1572
      4 N         138.7919  141.6261  162.1517 N.3     1  UNL1       -0.1592
      5 C         138.4683  142.4197  163.3827 C.3     1  UNL1        0.0979
      6 C         138.1774  141.7149  164.6744 C.3     1  UNL1        0.0487
      7 C         138.2101  140.2165  164.7352 C.3     1  UNL1        0.1186
      8 C         138.5338  139.4229  163.5042 C.3     1  UNL1        0.0487
      9 C         138.8247  140.1277  162.2125 C.3     1  UNL1        0.0979
     10 O         137.9192  139.5117  166.0270 O.3     1  UNL1       -0.3514
     11 C         139.0465  139.0948  166.9243 C.3     1  UNL1        0.1693
     12 C         139.7930  140.1251  167.7189 C.ar    1  UNL1        0.0179
     13 C         139.2971  140.5304  169.0753 C.ar    1  UNL1       -0.0001
     14 C         140.0435  141.5607  169.8698 C.ar    1  UNL1        0.0112
     15 C         141.2860  142.1857  169.3079 C.ar    1  UNL1        0.0585
     16 CL        142.0324  143.2160  170.1025 Cl      1  UNL1       -0.0822
     17 C         141.7819  141.7805  167.9515 C.ar    1  UNL1        0.0225
     18 C         141.0354  140.7502  167.1570 C.ar    1  UNL1        0.0569
     19 CL        141.5314  140.3449  165.8006 Cl      1  UNL1       -0.0825
     20 C         139.3738  143.0356  159.5682 C.3     1  UNL1        0.1913
     21 C         140.6231  143.8534  159.4248 C.3     1  UNL1        0.1293
     22 N         141.7426  143.3661  158.5535 N.am    1  UNL1       -0.1645
     23 O         143.1389  143.8671  158.7761 O.3     1  UNL1       -0.2914
     24 C         141.4659  142.3779  157.4595 C.2     1  UNL1        0.3268
     25 O         142.5855  141.8906  156.5882 O.2     1  UNL1       -0.2627
     26 H         143.1432  144.4945  159.5159 H       1  UNL1        0.2417
     27 C         140.7528  145.1585  160.1528 C.3     1  UNL1        0.0318
     28 C         139.6948  145.8464  162.4238 C.3     1  UNL1        0.0080
     29 C         140.7950  145.1800  161.6521 C.3     1  UNL1        0.0604
     30 C         141.9373  144.5351  162.3795 C.ar    1  UNL1        0.1390
     31 N         143.2674  144.3837  161.7030 N.ar    1  UNL1       -0.2268
     32 C         144.4098  143.7388  162.4305 C.ar    1  UNL1        0.1314
     33 C         144.2219  143.2454  163.8345 C.ar    1  UNL1        0.1783
     34 F         145.3642  142.6005  164.5620 F       1  UNL1       -0.2009
     35 C         142.8917  143.3968  164.5110 C.ar    1  UNL1        0.1314
     36 N         141.7494  144.0417  163.7835 N.ar    1  UNL1       -0.2268
@<TRIPOS>BOND
     1    29    28    1
     2    29    27    1
     3    21    27    1
     4    21    20    1
     5    20     1    1
     6     1     2    2
     7     1     3    2
     8     1     4    1
     9     4     5    1
    10     5     6    1
    11     6     7    1
    12     7    10    1
    13    10    11    1
    14    11    12    1
    15    12    13   ar
    16    13    14   ar
    17    14    15   ar
    18    15    16    1
    19    15    17   ar
    20    17    18   ar
    21    18    19    1
    22     7     8    1
    23     8     9    1
    24    21    22    1
    25    22    23    1
    26    22    24   am
    27    24    25    2
    28    29    30    1
    29    30    31   ar
    30    31    32   ar
    31    32    33   ar
    32    33    34    1
    33    33    35   ar
    34    35    36   ar
    35     9     4    1
    36    36    30   ar
    37    18    12   ar
    38    23    26    1
@<TRIPOS>MOLECULE
*****
 36 38 0 0 0
SMALL
GASTEIGER

@<TRIPOS>ATOM
      1 S         141.9592  142.4053  166.6338 S.O2    1  UNL1        0.0456
      2 O         140.5238  142.2194  167.0276 O.2     1  UNL1       -0.1572
      3 O         143.3945  142.5912  166.2400 O.2     1  UNL1       -0.1572
      4 N         141.5281  143.2066  165.4412 N.3     1  UNL1       -0.1592
      5 C         140.0779  143.5339  165.2420 C.3     1  UNL1        0.0979
      6 C         139.6469  144.3351  164.0494 C.3     1  UNL1        0.0487
      7 C         140.6661  144.8091  163.0561 C.3     1  UNL1        0.1186
      8 C         142.1163  144.4817  163.2554 C.3     1  UNL1        0.0487
      9 C         142.5473  143.6805  164.4479 C.3     1  UNL1        0.0979
     10 O         140.2350  145.6103  161.8635 O.3     1  UNL1       -0.3514
     11 C         140.2653  144.9951  160.4959 C.3     1  UNL1        0.1693
     12 C         140.1052  143.5121  160.3369 C.ar    1  UNL1        0.0179
     13 C         138.7578  142.8792  160.5209 C.ar    1  UNL1       -0.0001
     14 C         138.5979  141.3963  160.3619 C.ar    1  UNL1        0.0112
     15 C         139.7852  140.5463  160.0189 C.ar    1  UNL1        0.0585
     16 CL        139.6252  139.0633  159.8599 Cl      1  UNL1       -0.0822
     17 C         141.1326  141.1792  159.8349 C.ar    1  UNL1        0.0225
     18 C         141.2926  142.6621  159.9939 C.ar    1  UNL1        0.0569
     19 CL        142.6401  143.2951  159.8099 Cl      1  UNL1       -0.0825
     20 C         142.3902  141.6041  167.8264 C.3     1  UNL1        0.1913
     21 C         141.9198  140.1890  167.9889 C.3     1  UNL1        0.1293
     22 N         140.6976  139.8942  168.8070 N.am    1  UNL1       -0.1645
     23 O         139.3895  139.6160  168.1276 O.3     1  UNL1       -0.2914
     24 C         140.7835  139.8776  170.3045 C.2     1  UNL1        0.3268
     25 O         139.5612  139.5827  171.1225 O.2     1  UNL1       -0.2627
     26 H         139.5076  139.6656  167.1661 H       1  UNL1        0.2417
     27 C         142.6718  139.0687  167.3334 C.3     1  UNL1        0.0318
     28 C         144.1049  139.3457  165.1841 C.3     1  UNL1        0.0080
     29 C         142.7950  139.0215  165.8392 C.3     1  UNL1        0.0604
     30 C         141.6084  138.6502  165.0002 C.ar    1  UNL1        0.1390
     31 N         141.7823  137.7535  163.8104 N.ar    1  UNL1       -0.2268
     32 C         140.5956  137.3821  162.9713 C.ar    1  UNL1        0.1314
     33 C         139.2351  137.9074  163.3222 C.ar    1  UNL1        0.1783
     34 F         138.0485  137.5360  162.4831 F       1  UNL1       -0.2009
     35 C         139.0612  138.8041  164.5121 C.ar    1  UNL1        0.1314
     36 N         140.2478  139.1754  165.3511 N.ar    1  UNL1       -0.2268
@<TRIPOS>BOND
     1    29    28    1
     2    29    27    1
     3    21    27    1
     4    21    20    1
     5    20     1    1
     6     1     2    2
     7     1     3    2
     8     1     4    1
     9     4     5    1
    10     5     6    1
    11     6     7    1
    12     7    10    1
    13    10    11    1
    14    11    12    1
    15    12    13   ar
    16    13    14   ar
    17    14    15   ar
    18    15    16    1
    19    15    17   ar
    20    17    18   ar
    21    18    19    1
    22     7     8    1
    23     8     9    1
    24    21    22    1
    25    22    23    1
    26    22    24   am
    27    24    25    2
    28    29    30    1
    29    30    31   ar
    30    31    32   ar
    31    32    33   ar
    32    33    34    1
    33    33    35   ar
    34    35    36   ar
    35     9     4    1
    36    36    30   ar
    37    18    12   ar
    38    23    26    1
@<TRIPOS>MOLECULE
*****
 36 38 0 0 0
SMALL
GASTEIGER

@<TRIPOS>ATOM
      1 S         139.6456  143.9893  161.4469 S.O2    1  UNL1        0.0456
      2 O         138.7210  143.3806  160.4347 O.2     1  UNL1       -0.1572
      3 O         140.5702  144.5980  162.4591 O.2     1  UNL1       -0.1572
      4 N         139.1895  142.9874  162.4659 N.3     1  UNL1       -0.1592
      5 C         139.5174  143.1897  163.9155 C.3     1  UNL1        0.0979
      6 C         139.0613  142.1879  164.9345 C.3     1  UNL1        0.0487
      7 C         138.2773  140.9838  164.5038 C.3     1  UNL1        0.1186
      8 C         137.9494  140.7815  163.0541 C.3     1  UNL1        0.0487
      9 C         138.4055  141.7833  162.0352 C.3     1  UNL1        0.0979
     10 O         137.8212  139.9820  165.5228 O.3     1  UNL1       -0.3514
     11 C         138.6439  138.7566  165.7904 C.3     1  UNL1        0.1693
     12 C         140.1335  138.8013  165.6194 C.ar    1  UNL1        0.0179
     13 C         140.7703  138.1623  164.4210 C.ar    1  UNL1       -0.0001
     14 C         142.2598  138.2069  164.2501 C.ar    1  UNL1        0.0112
     15 C         143.1125  138.8906  165.2775 C.ar    1  UNL1        0.0585
     16 CL        144.6021  138.9352  165.1065 Cl      1  UNL1       -0.0822
     17 C         142.4757  139.5296  166.4759 C.ar    1  UNL1        0.0225
     18 C         140.9861  139.4849  166.6468 C.ar    1  UNL1        0.0569
     19 CL        140.3492  140.1239  167.8452 Cl      1  UNL1       -0.0825
     20 C         140.1016  144.9910  160.4278 C.3     1  UNL1        0.1913
     21 C         140.9875  144.5601  159.2967 C.3     1  UNL1        0.1293
     22 N         141.2397  145.4886  158.1459 N.am    1  UNL1       -0.1645
     23 O         142.6169  146.0346  157.9106 O.3     1  UNL1       -0.2914
     24 C         140.1147  145.8711  157.2304 C.2     1  UNL1        0.3268
     25 O         140.3669  146.7997  156.0796 O.2     1  UNL1       -0.2627
     26 H         143.2210  145.6908  158.5872 H       1  UNL1        0.2417
     27 C         141.6212  143.2007  159.3163 C.3     1  UNL1        0.0318
     28 C         144.1596  142.7951  158.9387 C.3     1  UNL1        0.0080
     29 C         143.0051  143.0262  159.8682 C.3     1  UNL1        0.0604
     30 C         143.2345  143.0829  161.3494 C.ar    1  UNL1        0.1390
     31 N         143.8858  144.2873  161.9619 N.ar    1  UNL1       -0.2268
     32 C         144.1152  144.3439  163.4432 C.ar    1  UNL1        0.1314
     33 C         143.6934  143.1962  164.3120 C.ar    1  UNL1        0.1783
     34 F         143.9228  143.2528  165.7932 F       1  UNL1       -0.2009
     35 C         143.0421  141.9917  163.6994 C.ar    1  UNL1        0.1314
     36 N         142.8127  141.9351  162.2181 N.ar    1  UNL1       -0.2268
@<TRIPOS>BOND
     1    29    28    1
     2    29    27    1
     3    21    27    1
     4    21    20    1
     5    20     1    1
     6     1     2    2
     7     1     3    2
     8     1     4    1
     9     4     5    1
    10     5     6    1
    11     6     7    1
    12     7    10    1
    13    10    11    1
    14    11    12    1
    15    12    13   ar
    16    13    14   ar
    17    14    15   ar
    18    15    16    1
    19    15    17   ar
    20    17    18   ar
    21    18    19    1
    22     7     8    1
    23     8     9    1
    24    21    22    1
    25    22    23    1
    26    22    24   am
    27    24    25    2
    28    29    30    1
    29    30    31   ar
    30    31    32   ar
    31    32    33   ar
    32    33    34    1
    33    33    35   ar
    34    35    36   ar
    35     9     4    1
    36    36    30   ar
    37    18    12   ar
    38    23    26    1
