@<TRIPOS>MOLECULE
*****
 32 35 0 0 0
SMALL
GASTEIGER

@<TRIPOS>ATOM
      1 N         140.4263  141.1571  166.7413 N.pl3   1  UNL1       -0.3077
      2 C         140.7834  142.5879  166.4671 C.3     1  UNL1        0.0908
      3 C         140.0735  143.3435  165.3831 C.3     1  UNL1        0.0229
      4 C         139.0065  142.6684  164.5733 C.3     1  UNL1        0.0194
      5 C         138.6495  141.2375  164.8475 C.3     1  UNL1        0.0229
      6 C         139.3594  140.4819  165.9316 C.3     1  UNL1        0.0908
      7 C         140.7340  140.5901  169.2581 C.ar    1  UNL1       -0.0033
      8 C         141.4440  139.8345  170.3420 C.ar    1  UNL1       -0.0027
      9 C         142.5561  138.8902  169.9933 C.ar    1  UNL1       -0.0002
     10 C         142.9583  138.7016  168.5606 C.ar    1  UNL1        0.0012
     11 C         142.2483  139.4572  167.4767 C.ar    1  UNL1        0.0142
     12 C         141.1362  140.4014  167.8254 C.ar    1  UNL1        0.0441
     13 C         139.6219  141.5343  169.6068 C.3     1  UNL1        0.0692
     14 O         140.0475  142.5305  171.9683 O.co2   1  UNL1       -0.5488
     15 C         139.8915  142.7177  170.4882 C.2     1  UNL1        0.0548
     16 O         140.0051  144.0884  169.8895 O.co2   1  UNL1       -0.5488
     17 C         138.2967  143.4240  163.4893 C.3     1  UNL1        0.0722
     18 N         139.0802  144.0434  162.3702 N.3     1  UNL1       -0.2724
     19 C         139.2931  145.5278  162.3356 C.3     1  UNL1        0.0758
     20 C         140.0766  146.1473  161.2165 C.3     1  UNL1        0.0609
     21 C         140.6472  145.2823  160.1320 C.3     1  UNL1        0.1687
     22 C         140.4343  143.7979  160.1666 C.3     1  UNL1        0.0609
     23 C         139.6508  143.1785  161.2857 C.3     1  UNL1        0.0758
     24 O         141.4307  145.9018  159.0129 O.3     1  UNL1       -0.4790
     25 C         141.0911  145.5749  157.5889 C.ar    1  UNL1        0.1393
     26 C         142.1379  145.0003  156.6811 C.ar    1  UNL1        0.0378
     27 C         141.7982  144.6734  155.2571 C.ar    1  UNL1        0.0154
     28 C         140.4118  144.9211  154.7409 C.ar    1  UNL1        0.0684
     29 CL        140.0722  144.5942  153.3168 Cl      1  UNL1       -0.0814
     30 C         139.3650  145.4957  155.6486 C.ar    1  UNL1        0.0712
     31 CL        137.9786  145.7434  155.1324 Cl      1  UNL1       -0.0813
     32 C         139.7046  145.8226  157.0727 C.ar    1  UNL1        0.0491
@<TRIPOS>UNITY_ATOM_ATTR
14 1
charge -1
@<TRIPOS>BOND
     1    14    15   ar
     2    15    16   ar
     3    15    13    1
     4    13     7    1
     5     7     8   ar
     6     8     9   ar
     7     9    10   ar
     8    10    11   ar
     9    11    12   ar
    10    12     1    1
    11     1     2    1
    12     2     3    1
    13     3     4    1
    14     4    17    1
    15    17    18    1
    16    18    19    1
    17    19    20    1
    18    20    21    1
    19    21    24    1
    20    24    25    1
    21    25    26   ar
    22    26    27   ar
    23    27    28   ar
    24    28    29    1
    25    28    30   ar
    26    30    31    1
    27    30    32   ar
    28    21    22    1
    29    22    23    1
    30     4     5    1
    31     5     6    1
    32    12     7   ar
    33     6     1    1
    34    23    18    1
    35    32    25   ar
@<TRIPOS>MOLECULE
*****
 32 35 0 0 0
SMALL
GASTEIGER

@<TRIPOS>ATOM
      1 N         142.1727  140.3792  166.9837 N.pl3   1  UNL1       -0.3077
      2 C         142.5159  141.6887  166.3376 C.3     1  UNL1        0.0908
      3 C         143.5144  141.7343  165.2192 C.3     1  UNL1        0.0229
      4 C         144.1696  140.4703  164.7467 C.3     1  UNL1        0.0194
      5 C         143.8264  139.1608  165.3927 C.3     1  UNL1        0.0229
      6 C         142.8279  139.1153  166.5113 C.3     1  UNL1        0.0908
      7 C         141.6026  140.6543  169.5035 C.ar    1  UNL1       -0.0033
      8 C         140.6041  140.6088  170.6219 C.ar    1  UNL1       -0.0027
      9 C         139.1773  140.2425  170.3391 C.ar    1  UNL1       -0.0002
     10 C         138.7489  139.9218  168.9378 C.ar    1  UNL1        0.0012
     11 C         139.7474  139.9674  167.8194 C.ar    1  UNL1        0.0142
     12 C         141.1742  140.3336  168.1022 C.ar    1  UNL1        0.0441
     13 C         143.0294  141.0206  169.7863 C.3     1  UNL1        0.0692
     14 O         142.3540  143.4447  170.4325 O.co2   1  UNL1       -0.5488
     15 C         143.4031  142.4539  170.0229 C.2     1  UNL1        0.0548
     16 O         144.8258  142.8965  169.8499 O.co2   1  UNL1       -0.5488
     17 C         145.1680  140.5159  163.6282 C.3     1  UNL1        0.0722
     18 N         144.7244  140.8748  162.2410 N.3     1  UNL1       -0.2724
     19 C         144.8186  142.2948  161.7672 C.3     1  UNL1        0.0758
     20 C         144.3750  142.6537  160.3800 C.3     1  UNL1        0.0609
     21 C         143.8371  141.5925  159.4665 C.3     1  UNL1        0.1687
     22 C         143.7429  140.1724  159.9403 C.3     1  UNL1        0.0609
     23 C         144.1865  139.8136  161.3275 C.3     1  UNL1        0.0758
     24 O         143.3934  141.9513  158.0793 O.3     1  UNL1       -0.4790
     25 C         144.3390  141.7949  156.9255 C.ar    1  UNL1        0.1393
     26 C         143.8233  141.3538  155.5877 C.ar    1  UNL1        0.0378
     27 C         144.7689  141.1973  154.4338 C.ar    1  UNL1        0.0154
     28 C         146.2301  141.4819  154.6177 C.ar    1  UNL1        0.0684
     29 CL        147.1757  141.3254  153.4637 Cl      1  UNL1       -0.0814
     30 C         146.7458  141.9229  155.9554 C.ar    1  UNL1        0.0712
     31 CL        148.2070  142.2075  156.1392 Cl      1  UNL1       -0.0813
     32 C         145.8002  142.0794  157.1093 C.ar    1  UNL1        0.0491
@<TRIPOS>UNITY_ATOM_ATTR
14 1
charge -1
@<TRIPOS>BOND
     1    14    15   ar
     2    15    16   ar
     3    15    13    1
     4    13     7    1
     5     7     8   ar
     6     8     9   ar
     7     9    10   ar
     8    10    11   ar
     9    11    12   ar
    10    12     1    1
    11     1     2    1
    12     2     3    1
    13     3     4    1
    14     4    17    1
    15    17    18    1
    16    18    19    1
    17    19    20    1
    18    20    21    1
    19    21    24    1
    20    24    25    1
    21    25    26   ar
    22    26    27   ar
    23    27    28   ar
    24    28    29    1
    25    28    30   ar
    26    30    31    1
    27    30    32   ar
    28    21    22    1
    29    22    23    1
    30     4     5    1
    31     5     6    1
    32    12     7   ar
    33     6     1    1
    34    23    18    1
    35    32    25   ar
@<TRIPOS>MOLECULE
*****
 32 35 0 0 0
SMALL
GASTEIGER

@<TRIPOS>ATOM
      1 N         140.3937  141.3005  166.8204 N.pl3   1  UNL1       -0.3077
      2 C         139.3202  140.6538  165.9960 C.3     1  UNL1        0.0908
      3 C         138.5913  141.4508  164.9552 C.3     1  UNL1        0.0229
      4 C         138.9359  142.8946  164.7386 C.3     1  UNL1        0.0194
      5 C         140.0093  143.5413  165.5630 C.3     1  UNL1        0.0229
      6 C         140.7382  142.7442  166.6039 C.3     1  UNL1        0.0908
      7 C         140.7536  140.6442  169.3083 C.ar    1  UNL1       -0.0033
      8 C         141.4825  139.8471  170.3491 C.ar    1  UNL1       -0.0027
      9 C         142.5803  138.9092  169.9429 C.ar    1  UNL1       -0.0002
     10 C         142.9493  138.7683  168.4958 C.ar    1  UNL1        0.0012
     11 C         142.2204  139.5654  167.4550 C.ar    1  UNL1        0.0142
     12 C         141.1226  140.5034  167.8613 C.ar    1  UNL1        0.0441
     13 C         139.6558  141.5821  169.7146 C.3     1  UNL1        0.0692
     14 O         139.9622  144.1182  170.1885 O.co2   1  UNL1       -0.5488
     15 C         139.9405  142.6992  170.6743 C.2     1  UNL1        0.0548
     16 O         140.2036  142.3972  172.1199 O.co2   1  UNL1       -0.5488
     17 C         138.2070  143.6916  163.6978 C.3     1  UNL1        0.0722
     18 N         138.8431  143.9410  162.3624 N.3     1  UNL1       -0.2724
     19 C         138.6724  142.9462  161.2529 C.3     1  UNL1        0.0758
     20 C         139.3085  143.1956  159.9175 C.3     1  UNL1        0.0609
     21 C         140.1153  144.4397  159.6917 C.3     1  UNL1        0.1687
     22 C         140.2860  145.4345  160.8013 C.3     1  UNL1        0.0609
     23 C         139.6499  145.1852  162.1366 C.3     1  UNL1        0.0758
     24 O         140.7515  144.6891  158.3564 O.3     1  UNL1       -0.4790
     25 C         141.9828  143.9304  157.9588 C.ar    1  UNL1        0.1393
     26 C         142.9145  143.4079  159.0118 C.ar    1  UNL1        0.0378
     27 C         144.1458  142.6491  158.6143 C.ar    1  UNL1        0.0154
     28 C         144.4455  142.4129  157.1636 C.ar    1  UNL1        0.0684
     29 CL        145.6769  141.6541  156.7660 Cl      1  UNL1       -0.0814
     30 C         143.5139  142.9354  156.1105 C.ar    1  UNL1        0.0712
     31 CL        143.8135  142.6992  154.6599 Cl      1  UNL1       -0.0813
     32 C         142.2825  143.6942  156.5081 C.ar    1  UNL1        0.0491
@<TRIPOS>UNITY_ATOM_ATTR
14 1
charge -1
@<TRIPOS>BOND
     1    14    15   ar
     2    15    16   ar
     3    15    13    1
     4    13     7    1
     5     7     8   ar
     6     8     9   ar
     7     9    10   ar
     8    10    11   ar
     9    11    12   ar
    10    12     1    1
    11     1     2    1
    12     2     3    1
    13     3     4    1
    14     4    17    1
    15    17    18    1
    16    18    19    1
    17    19    20    1
    18    20    21    1
    19    21    24    1
    20    24    25    1
    21    25    26   ar
    22    26    27   ar
    23    27    28   ar
    24    28    29    1
    25    28    30   ar
    26    30    31    1
    27    30    32   ar
    28    21    22    1
    29    22    23    1
    30     4     5    1
    31     5     6    1
    32    12     7   ar
    33     6     1    1
    34    23    18    1
    35    32    25   ar
@<TRIPOS>MOLECULE
*****
 32 35 0 0 0
SMALL
GASTEIGER

@<TRIPOS>ATOM
      1 N         139.8434  141.2944  166.7259 N.pl3   1  UNL1       -0.3077
      2 C         139.0145  140.4925  165.7667 C.3     1  UNL1        0.0908
      3 C         138.4030  141.1554  164.5681 C.3     1  UNL1        0.0229
      4 C         138.6204  142.6201  164.3286 C.3     1  UNL1        0.0194
      5 C         139.4493  143.4220  165.2878 C.3     1  UNL1        0.0229
      6 C         140.0608  142.7591  166.4864 C.3     1  UNL1        0.0908
      7 C         141.8586  140.1070  167.8569 C.ar    1  UNL1       -0.0033
      8 C         142.4700  139.4441  169.0555 C.ar    1  UNL1       -0.0027
      9 C         141.6778  139.3057  170.3217 C.ar    1  UNL1       -0.0002
     10 C         140.2742  139.8302  170.3893 C.ar    1  UNL1        0.0012
     11 C         139.6627  140.4931  169.1907 C.ar    1  UNL1        0.0142
     12 C         140.4549  140.6315  167.9245 C.ar    1  UNL1        0.0441
     13 C         142.6508  140.2453  166.5907 C.3     1  UNL1        0.0692
     14 O         141.6980  138.1419  165.3999 O.co2   1  UNL1       -0.5488
     15 C         142.8486  139.0576  165.6962 C.2     1  UNL1        0.0548
     16 O         144.1969  138.7855  165.0980 O.co2   1  UNL1       -0.5488
     17 C         138.0089  143.2830  163.1300 C.3     1  UNL1        0.0722
     18 N         138.8867  143.9449  162.1096 N.3     1  UNL1       -0.2724
     19 C         139.2703  145.3859  162.2720 C.3     1  UNL1        0.0758
     20 C         140.1481  146.0479  161.2516 C.3     1  UNL1        0.0609
     21 C         140.6424  145.2689  160.0689 C.3     1  UNL1        0.1687
     22 C         140.2588  143.8279  159.9066 C.3     1  UNL1        0.0609
     23 C         139.3810  143.1659  160.9270 C.3     1  UNL1        0.0758
     24 O         141.5203  145.9309  159.0485 O.3     1  UNL1       -0.4790
     25 C         141.2392  145.7493  157.5863 C.ar    1  UNL1        0.1393
     26 C         142.2317  145.0390  156.7143 C.ar    1  UNL1        0.0378
     27 C         141.9506  144.8574  155.2521 C.ar    1  UNL1        0.0154
     28 C         140.6770  145.3861  154.6619 C.ar    1  UNL1        0.0684
     29 CL        140.3959  145.2045  153.1997 Cl      1  UNL1       -0.0814
     30 C         139.6845  146.0964  155.5339 C.ar    1  UNL1        0.0712
     31 CL        138.4108  146.6250  154.9437 Cl      1  UNL1       -0.0813
     32 C         139.9655  146.2780  156.9961 C.ar    1  UNL1        0.0491
@<TRIPOS>UNITY_ATOM_ATTR
14 1
charge -1
@<TRIPOS>BOND
     1    14    15   ar
     2    15    16   ar
     3    15    13    1
     4    13     7    1
     5     7     8   ar
     6     8     9   ar
     7     9    10   ar
     8    10    11   ar
     9    11    12   ar
    10    12     1    1
    11     1     2    1
    12     2     3    1
    13     3     4    1
    14     4    17    1
    15    17    18    1
    16    18    19    1
    17    19    20    1
    18    20    21    1
    19    21    24    1
    20    24    25    1
    21    25    26   ar
    22    26    27   ar
    23    27    28   ar
    24    28    29    1
    25    28    30   ar
    26    30    31    1
    27    30    32   ar
    28    21    22    1
    29    22    23    1
    30     4     5    1
    31     5     6    1
    32    12     7   ar
    33     6     1    1
    34    23    18    1
    35    32    25   ar
@<TRIPOS>MOLECULE
*****
 32 35 0 0 0
SMALL
GASTEIGER

@<TRIPOS>ATOM
      1 N         140.0816  142.3051  166.5759 N.pl3   1  UNL1       -0.3077
      2 C         139.5025  140.9573  166.2627 C.3     1  UNL1        0.0908
      3 C         138.5497  140.7986  165.1152 C.3     1  UNL1        0.0229
      4 C         138.1759  141.9878  164.2808 C.3     1  UNL1        0.0194
      5 C         138.7549  143.3356  164.5939 C.3     1  UNL1        0.0229
      6 C         139.7078  143.4943  165.7415 C.3     1  UNL1        0.0908
      7 C         142.4957  142.1861  167.5289 C.ar    1  UNL1       -0.0033
      8 C         143.4485  142.3448  168.6765 C.ar    1  UNL1       -0.0027
      9 C         142.9402  142.7811  170.0185 C.ar    1  UNL1       -0.0002
     10 C         141.4790  143.0588  170.2131 C.ar    1  UNL1        0.0012
     11 C         140.5262  142.9002  169.0655 C.ar    1  UNL1        0.0142
     12 C         141.0345  142.4638  167.7234 C.ar    1  UNL1        0.0441
     13 C         143.0040  141.7497  166.1868 C.3     1  UNL1        0.0692
     14 O         144.6644  143.6091  165.4547 O.co2   1  UNL1       -0.5488
     15 C         143.4486  142.7730  165.1843 C.2     1  UNL1        0.0548
     16 O         142.6776  142.9603  163.9113 O.co2   1  UNL1       -0.5488
     17 C         137.2230  141.8291  163.1332 C.3     1  UNL1        0.0722
     18 N         137.7442  141.5018  161.7653 N.3     1  UNL1       -0.2724
     19 C         137.6699  140.0946  161.2513 C.3     1  UNL1        0.0758
     20 C         138.1911  139.7674  159.8833 C.3     1  UNL1        0.0609
     21 C         138.7867  140.8472  159.0295 C.3     1  UNL1        0.1687
     22 C         138.8610  142.2544  159.5435 C.3     1  UNL1        0.0609
     23 C         138.3397  142.5817  160.9115 C.3     1  UNL1        0.0758
     24 O         139.3079  140.5200  157.6615 O.3     1  UNL1       -0.4790
     25 C         140.2501  139.3681  157.4737 C.ar    1  UNL1        0.1393
     26 C         141.5314  139.3126  158.2518 C.ar    1  UNL1        0.0378
     27 C         142.4736  138.1607  158.0639 C.ar    1  UNL1        0.0154
     28 C         142.1346  137.0642  157.0981 C.ar    1  UNL1        0.0684
     29 CL        143.0769  135.9123  156.9103 Cl      1  UNL1       -0.0814
     30 C         140.8533  137.1196  156.3201 C.ar    1  UNL1        0.0712
     31 CL        140.5143  136.0232  155.3543 Cl      1  UNL1       -0.0813
     32 C         139.9111  138.2716  156.5079 C.ar    1  UNL1        0.0491
@<TRIPOS>UNITY_ATOM_ATTR
14 1
charge -1
@<TRIPOS>BOND
     1    14    15   ar
     2    15    16   ar
     3    15    13    1
     4    13     7    1
     5     7     8   ar
     6     8     9   ar
     7     9    10   ar
     8    10    11   ar
     9    11    12   ar
    10    12     1    1
    11     1     2    1
    12     2     3    1
    13     3     4    1
    14     4    17    1
    15    17    18    1
    16    18    19    1
    17    19    20    1
    18    20    21    1
    19    21    24    1
    20    24    25    1
    21    25    26   ar
    22    26    27   ar
    23    27    28   ar
    24    28    29    1
    25    28    30   ar
    26    30    31    1
    27    30    32   ar
    28    21    22    1
    29    22    23    1
    30     4     5    1
    31     5     6    1
    32    12     7   ar
    33     6     1    1
    34    23    18    1
    35    32    25   ar
@<TRIPOS>MOLECULE
*****
 32 35 0 0 0
SMALL
GASTEIGER

@<TRIPOS>ATOM
      1 N         141.0290  142.7825  166.3454 N.pl3   1  UNL1       -0.3077
      2 C         142.4663  142.5638  165.9764 C.3     1  UNL1        0.0908
      3 C         143.0351  143.2204  164.7536 C.3     1  UNL1        0.0229
      4 C         142.1665  144.0959  163.8997 C.3     1  UNL1        0.0194
      5 C         140.7291  144.3146  164.2686 C.3     1  UNL1        0.0229
      6 C         140.1604  143.6579  165.4915 C.3     1  UNL1        0.0908
      7 C         139.8395  140.7639  167.4682 C.ar    1  UNL1       -0.0033
      8 C         139.2708  140.1073  168.6910 C.ar    1  UNL1       -0.0027
      9 C         139.3228  140.8125  170.0139 C.ar    1  UNL1       -0.0002
     10 C         139.9434  142.1744  170.1139 C.ar    1  UNL1        0.0012
     11 C         140.5121  142.8310  168.8911 C.ar    1  UNL1        0.0142
     12 C         140.4602  142.1258  167.5682 C.ar    1  UNL1        0.0441
     13 C         139.7876  140.0587  166.1453 C.3     1  UNL1        0.0692
     14 O         137.9891  140.3182  164.2884 O.co2   1  UNL1       -0.5488
     15 C         138.4650  139.6694  165.5544 C.2     1  UNL1        0.0548
     16 O         137.6184  138.6313  166.2293 O.co2   1  UNL1       -0.5488
     17 C         142.7353  144.7525  162.6769 C.3     1  UNL1        0.0722
     18 N         142.9481  143.9523  161.4261 N.3     1  UNL1       -0.2724
     19 C         141.9631  144.0466  160.2988 C.3     1  UNL1        0.0758
     20 C         142.1759  143.2464  159.0481 C.3     1  UNL1        0.0609
     21 C         143.3737  142.3520  158.9246 C.3     1  UNL1        0.1687
     22 C         144.3586  142.2577  160.0519 C.3     1  UNL1        0.0609
     23 C         144.1458  143.0579  161.3027 C.3     1  UNL1        0.0758
     24 O         143.5864  141.5518  157.6739 O.3     1  UNL1       -0.4790
     25 C         144.5387  142.0411  156.6233 C.ar    1  UNL1        0.1393
     26 C         144.0190  142.7772  155.4241 C.ar    1  UNL1        0.0378
     27 C         144.9712  143.2666  154.3736 C.ar    1  UNL1        0.0154
     28 C         146.4433  143.0199  154.5222 C.ar    1  UNL1        0.0684
     29 CL        147.3956  143.5093  153.4716 Cl      1  UNL1       -0.0814
     30 C         146.9631  142.2838  155.7214 C.ar    1  UNL1        0.0712
     31 CL        148.4352  142.0372  155.8700 Cl      1  UNL1       -0.0813
     32 C         146.0108  141.7944  156.7720 C.ar    1  UNL1        0.0491
@<TRIPOS>UNITY_ATOM_ATTR
14 1
charge -1
@<TRIPOS>BOND
     1    14    15   ar
     2    15    16   ar
     3    15    13    1
     4    13     7    1
     5     7     8   ar
     6     8     9   ar
     7     9    10   ar
     8    10    11   ar
     9    11    12   ar
    10    12     1    1
    11     1     2    1
    12     2     3    1
    13     3     4    1
    14     4    17    1
    15    17    18    1
    16    18    19    1
    17    19    20    1
    18    20    21    1
    19    21    24    1
    20    24    25    1
    21    25    26   ar
    22    26    27   ar
    23    27    28   ar
    24    28    29    1
    25    28    30   ar
    26    30    31    1
    27    30    32   ar
    28    21    22    1
    29    22    23    1
    30     4     5    1
    31     5     6    1
    32    12     7   ar
    33     6     1    1
    34    23    18    1
    35    32    25   ar
@<TRIPOS>MOLECULE
*****
 32 35 0 0 0
SMALL
GASTEIGER

@<TRIPOS>ATOM
      1 N         140.4087  139.9641  166.7663 N.pl3   1  UNL1       -0.3077
      2 C         141.7639  139.4549  166.3736 C.3     1  UNL1        0.0908
      3 C         141.9035  138.5077  165.2190 C.3     1  UNL1        0.0229
      4 C         140.6879  138.0695  164.4571 C.3     1  UNL1        0.0194
      5 C         139.3327  138.5786  164.8498 C.3     1  UNL1        0.0229
      6 C         139.1931  139.5260  166.0045 C.3     1  UNL1        0.0908
      7 C         140.4453  142.3855  167.7072 C.ar    1  UNL1       -0.0033
      8 C         140.3057  143.3328  168.8619 C.ar    1  UNL1       -0.0027
      9 C         139.9898  142.8058  170.2303 C.ar    1  UNL1       -0.0002
     10 C         139.8136  141.3317  170.4441 C.ar    1  UNL1        0.0012
     11 C         139.9532  140.3845  169.2894 C.ar    1  UNL1        0.0142
     12 C         140.2691  140.9114  167.9210 C.ar    1  UNL1        0.0441
     13 C         140.7612  142.9125  166.3388 C.3     1  UNL1        0.0692
     14 O         138.9424  144.6629  165.7236 O.co2   1  UNL1       -0.5488
     15 C         139.6535  143.3732  165.4384 C.2     1  UNL1        0.0548
     16 O         139.2568  142.5443  164.2529 O.co2   1  UNL1       -0.5488
     17 C         140.8276  137.1222  163.3025 C.3     1  UNL1        0.0722
     18 N         140.8887  137.6524  161.9006 N.3     1  UNL1       -0.2724
     19 C         139.6271  138.0503  161.1936 C.3     1  UNL1        0.0758
     20 C         139.6883  138.5804  159.7917 C.3     1  UNL1        0.0609
     21 C         141.0110  138.7126  159.0969 C.3     1  UNL1        0.1687
     22 C         142.2726  138.3146  159.8039 C.3     1  UNL1        0.0609
     23 C         142.2115  137.7845  161.2058 C.3     1  UNL1        0.0758
     24 O         141.0721  139.2427  157.6950 O.3     1  UNL1       -0.4790
     25 C         140.0258  138.8450  156.6965 C.ar    1  UNL1        0.1393
     26 C         139.9373  137.4223  156.2292 C.ar    1  UNL1        0.0378
     27 C         138.8910  137.0246  155.2307 C.ar    1  UNL1        0.0154
     28 C         137.9332  138.0496  154.6994 C.ar    1  UNL1        0.0684
     29 CL        136.8869  137.6518  153.7008 Cl      1  UNL1       -0.0814
     30 C         138.0217  139.4721  155.1666 C.ar    1  UNL1        0.0712
     31 CL        137.0639  140.4970  154.6354 Cl      1  UNL1       -0.0813
     32 C         139.0681  139.8699  156.1652 C.ar    1  UNL1        0.0491
@<TRIPOS>UNITY_ATOM_ATTR
14 1
charge -1
@<TRIPOS>BOND
     1    14    15   ar
     2    15    16   ar
     3    15    13    1
     4    13     7    1
     5     7     8   ar
     6     8     9   ar
     7     9    10   ar
     8    10    11   ar
     9    11    12   ar
    10    12     1    1
    11     1     2    1
    12     2     3    1
    13     3     4    1
    14     4    17    1
    15    17    18    1
    16    18    19    1
    17    19    20    1
    18    20    21    1
    19    21    24    1
    20    24    25    1
    21    25    26   ar
    22    26    27   ar
    23    27    28   ar
    24    28    29    1
    25    28    30   ar
    26    30    31    1
    27    30    32   ar
    28    21    22    1
    29    22    23    1
    30     4     5    1
    31     5     6    1
    32    12     7   ar
    33     6     1    1
    34    23    18    1
    35    32    25   ar
@<TRIPOS>MOLECULE
*****
 32 35 0 0 0
SMALL
GASTEIGER

@<TRIPOS>ATOM
      1 N         139.9918  139.7218  165.6682 N.pl3   1  UNL1       -0.3077
      2 C         140.2421  140.8435  164.7043 C.3     1  UNL1        0.0908
      3 C         139.9096  140.6724  163.2517 C.3     1  UNL1        0.0229
      4 C         139.3267  139.3795  162.7630 C.3     1  UNL1        0.0194
      5 C         139.0763  138.2578  163.7269 C.3     1  UNL1        0.0229
      6 C         139.4089  138.4290  165.1795 C.3     1  UNL1        0.0908
      7 C         141.7560  139.8865  167.5684 C.ar    1  UNL1       -0.0033
      8 C         142.0885  140.0576  169.0210 C.ar    1  UNL1       -0.0027
      9 C         140.9893  140.2352  170.0261 C.ar    1  UNL1       -0.0002
     10 C         139.5577  140.2417  169.5787 C.ar    1  UNL1        0.0012
     11 C         139.2252  140.0705  168.1261 C.ar    1  UNL1        0.0142
     12 C         140.3243  139.8929  167.1209 C.ar    1  UNL1        0.0441
     13 C         142.8552  139.7088  166.5632 C.3     1  UNL1        0.0692
     14 O         142.6719  137.6500  164.9892 O.co2   1  UNL1       -0.5488
     15 C         143.2971  138.3302  166.1709 C.2     1  UNL1        0.0548
     16 O         144.3643  137.6317  166.9603 O.co2   1  UNL1       -0.5488
     17 C         138.9941  139.2084  161.3104 C.3     1  UNL1        0.0722
     18 N         140.0557  138.7729  160.3442 N.3     1  UNL1       -0.2724
     19 C         139.7500  138.6985  158.8776 C.3     1  UNL1        0.0758
     20 C         140.8115  138.2629  157.9114 C.3     1  UNL1        0.0609
     21 C         142.1787  137.9019  158.4118 C.3     1  UNL1        0.1687
     22 C         142.4843  137.9763  159.8784 C.3     1  UNL1        0.0609
     23 C         141.4228  138.4118  160.8446 C.3     1  UNL1        0.0758
     24 O         143.2402  137.4664  157.4456 O.3     1  UNL1       -0.4790
     25 C         143.0602  136.2068  156.6513 C.ar    1  UNL1        0.1393
     26 C         143.3589  134.8765  157.2768 C.ar    1  UNL1        0.0378
     27 C         143.1789  133.6169  156.4825 C.ar    1  UNL1        0.0154
     28 C         142.7003  133.6875  155.0626 C.ar    1  UNL1        0.0684
     29 CL        142.5204  132.4278  154.2683 Cl      1  UNL1       -0.0814
     30 C         142.4017  135.0177  154.4371 C.ar    1  UNL1        0.0712
     31 CL        141.9231  135.0883  153.0173 Cl      1  UNL1       -0.0813
     32 C         142.5817  136.2774  155.2315 C.ar    1  UNL1        0.0491
@<TRIPOS>UNITY_ATOM_ATTR
14 1
charge -1
@<TRIPOS>BOND
     1    14    15   ar
     2    15    16   ar
     3    15    13    1
     4    13     7    1
     5     7     8   ar
     6     8     9   ar
     7     9    10   ar
     8    10    11   ar
     9    11    12   ar
    10    12     1    1
    11     1     2    1
    12     2     3    1
    13     3     4    1
    14     4    17    1
    15    17    18    1
    16    18    19    1
    17    19    20    1
    18    20    21    1
    19    21    24    1
    20    24    25    1
    21    25    26   ar
    22    26    27   ar
    23    27    28   ar
    24    28    29    1
    25    28    30   ar
    26    30    31    1
    27    30    32   ar
    28    21    22    1
    29    22    23    1
    30     4     5    1
    31     5     6    1
    32    12     7   ar
    33     6     1    1
    34    23    18    1
    35    32    25   ar
@<TRIPOS>MOLECULE
*****
 32 35 0 0 0
SMALL
GASTEIGER

@<TRIPOS>ATOM
      1 N         140.1569  142.1478  159.0630 N.pl3   1  UNL1       -0.3077
      2 C         141.0251  141.3249  159.9680 C.3     1  UNL1        0.0908
      3 C         140.4218  140.2235  160.7884 C.3     1  UNL1        0.0229
      4 C         138.9502  139.9451  160.7038 C.3     1  UNL1        0.0194
      5 C         138.0821  140.7681  159.7988 C.3     1  UNL1        0.0229
      6 C         138.6855  141.8695  158.9784 C.3     1  UNL1        0.0908
      7 C         140.8482  144.6386  158.8011 C.ar    1  UNL1       -0.0033
      8 C         141.4515  145.7399  157.9808 C.ar    1  UNL1       -0.0027
      9 C         141.9671  145.4518  156.6019 C.ar    1  UNL1       -0.0002
     10 C         141.8793  144.0625  156.0434 C.ar    1  UNL1        0.0012
     11 C         141.2759  142.9612  156.8638 C.ar    1  UNL1        0.0142
     12 C         140.7603  143.2492  158.2426 C.ar    1  UNL1        0.0441
     13 C         140.3326  144.9266  160.1800 C.3     1  UNL1        0.0692
     14 O         140.8260  145.4610  162.6742 O.co2   1  UNL1       -0.5488
     15 C         141.2723  144.9179  161.3491 C.2     1  UNL1        0.0548
     16 O         142.6584  144.3662  161.1931 O.co2   1  UNL1       -0.5488
     17 C         138.3469  138.8438  161.5241 C.3     1  UNL1        0.0722
     18 N         138.4192  138.8980  163.0214 N.3     1  UNL1       -0.2724
     19 C         138.8322  137.6822  163.7968 C.3     1  UNL1        0.0758
     20 C         138.9045  137.7364  165.2941 C.3     1  UNL1        0.0609
     21 C         138.5637  139.0064  166.0159 C.3     1  UNL1        0.1687
     22 C         138.1507  140.2221  165.2405 C.3     1  UNL1        0.0609
     23 C         138.0785  140.1679  163.7432 C.3     1  UNL1        0.0758
     24 O         138.6360  139.0606  167.5132 O.3     1  UNL1       -0.4790
     25 C         139.5091  140.0782  168.1856 C.ar    1  UNL1        0.1393
     26 C         139.1817  140.5486  169.5719 C.ar    1  UNL1        0.0378
     27 C         140.0547  141.5663  170.2442 C.ar    1  UNL1        0.0154
     28 C         141.2551  142.1136  169.5304 C.ar    1  UNL1        0.0684
     29 CL        142.1282  143.1313  170.2029 Cl      1  UNL1       -0.0814
     30 C         141.5825  141.6432  168.1443 C.ar    1  UNL1        0.0712
     31 CL        142.7829  142.1905  167.4305 Cl      1  UNL1       -0.0813
     32 C         140.7095  140.6255  167.4718 C.ar    1  UNL1        0.0491
@<TRIPOS>UNITY_ATOM_ATTR
14 1
charge -1
@<TRIPOS>BOND
     1    14    15   ar
     2    15    16   ar
     3    15    13    1
     4    13     7    1
     5     7     8   ar
     6     8     9   ar
     7     9    10   ar
     8    10    11   ar
     9    11    12   ar
    10    12     1    1
    11     1     2    1
    12     2     3    1
    13     3     4    1
    14     4    17    1
    15    17    18    1
    16    18    19    1
    17    19    20    1
    18    20    21    1
    19    21    24    1
    20    24    25    1
    21    25    26   ar
    22    26    27   ar
    23    27    28   ar
    24    28    29    1
    25    28    30   ar
    26    30    31    1
    27    30    32   ar
    28    21    22    1
    29    22    23    1
    30     4     5    1
    31     5     6    1
    32    12     7   ar
    33     6     1    1
    34    23    18    1
    35    32    25   ar
