@<TRIPOS>MOLECULE
*****
 19 21 0 0 0
SMALL
GASTEIGER

@<TRIPOS>ATOM
      1 C         138.3009  139.2882  163.4324 C.3     1  UNL1        0.0313
      2 C         138.0411  138.6259  162.1119 C.3     1  UNL1        0.0222
      3 C         137.3674  139.6240  161.2175 C.3     1  UNL1        0.0689
      4 N         137.2109  140.9031  161.9852 N.3     1  UNL1       -0.2972
      5 C         137.7878  140.6956  163.3542 C.3     1  UNL1        0.0723
      6 H         136.2224  141.1437  162.0590 H       1  UNL1        0.1233
      7 C         138.6848  139.6732  164.8305 C.2     1  UNL1       -0.0390
      8 C         138.2324  138.8360  165.9899 C.2     1  UNL1       -0.0066
      9 C         138.6163  139.2209  167.3880 C.2     1  UNL1        0.0182
     10 C         139.4525  140.4432  167.6265 C.2     1  UNL1        0.0777
     11 N         139.9827  141.0669  168.8834 N.2     1  UNL1       -0.2442
     12 C         140.7627  142.2896  168.5007 C.2     1  UNL1        0.0985
     13 C         140.7147  142.4216  167.0073 C.2     1  UNL1        0.0182
     14 C         139.9049  141.2804  166.4670 C.2     1  UNL1        0.0011
     15 C         139.5210  140.8954  165.0690 C.3     1  UNL1        0.0499
     16 C         138.8943  137.9614  163.8031 C.3     1  UNL1        0.0051
     17 C         140.2409  137.5676  163.2724 C.3     1  UNL1        0.0004
     18 C         142.0311  138.0450  165.0938 C.3     1  UNL1        0.0000
     19 C         141.3024  137.0756  164.2111 C.3     1  UNL1        0.0000
@<TRIPOS>BOND
     1    18    19    1
     2    19    17    1
     3    17    16    1
     4    16     1    1
     5     1     7    1
     6     7     8    2
     7     8     9    1
     8     9    10    2
     9    10    11    1
    10    11    12    2
    11    12    13    1
    12    13    14    2
    13    14    15    1
    14     1     2    1
    15     2     3    1
    16     3     4    1
    17     4     5    1
    18     5     1    1
    19    15     7    1
    20    14    10    1
    21     4     6    1
@<TRIPOS>MOLECULE
*****
 19 21 0 0 0
SMALL
GASTEIGER

@<TRIPOS>ATOM
      1 C         141.2129  140.0667  168.0853 C.3     1  UNL1        0.0313
      2 C         140.0118  140.1048  168.9829 C.3     1  UNL1        0.0222
      3 C         140.4744  139.8508  170.3871 C.3     1  UNL1        0.0689
      4 N         141.9613  139.6558  170.3572 N.3     1  UNL1       -0.2972
      5 C         142.4178  139.7892  168.9346 C.3     1  UNL1        0.0723
      6 H         142.1959  138.7281  170.7104 H       1  UNL1        0.1233
      7 C         142.2056  140.0876  166.9609 C.2     1  UNL1       -0.0390
      8 C         142.6407  138.8028  166.3206 C.2     1  UNL1       -0.0066
      9 C         143.6334  138.8237  165.1962 C.2     1  UNL1        0.0182
     10 C         144.1910  140.1294  164.7122 C.2     1  UNL1        0.0777
     11 N         145.1766  140.4607  163.6311 N.2     1  UNL1       -0.2442
     12 C         145.3507  141.9503  163.6033 C.2     1  UNL1        0.0985
     13 C         144.4726  142.5396  164.6672 C.2     1  UNL1        0.0182
     14 C         143.7558  141.4141  165.3525 C.2     1  UNL1        0.0011
     15 C         142.7632  141.3933  166.4768 C.3     1  UNL1        0.0499
     16 C         140.2157  140.3486  167.0009 C.3     1  UNL1        0.0051
     17 C         138.9324  139.5742  166.9424 C.3     1  UNL1        0.0004
     18 C         139.1564  137.7740  165.0824 C.3     1  UNL1        0.0000
     19 C         138.4707  138.9847  165.6426 C.3     1  UNL1        0.0000
@<TRIPOS>BOND
     1    18    19    1
     2    19    17    1
     3    17    16    1
     4    16     1    1
     5     1     7    1
     6     7     8    2
     7     8     9    1
     8     9    10    2
     9    10    11    1
    10    11    12    2
    11    12    13    1
    12    13    14    2
    13    14    15    1
    14     1     2    1
    15     2     3    1
    16     3     4    1
    17     4     5    1
    18     5     1    1
    19    15     7    1
    20    14    10    1
    21     4     6    1
@<TRIPOS>MOLECULE
*****
 19 21 0 0 0
SMALL
GASTEIGER

@<TRIPOS>ATOM
      1 C         140.8549  140.1769  168.0334 C.3     1  UNL1        0.0313
      2 C         141.9801  139.8676  168.9758 C.3     1  UNL1        0.0222
      3 C         141.3982  139.6733  170.3446 C.3     1  UNL1        0.0689
      4 N         139.9133  139.8627  170.2482 N.3     1  UNL1       -0.2972
      5 C         139.5775  140.1739  168.8198 C.3     1  UNL1        0.0723
      6 H         139.6232  140.6349  170.8481 H       1  UNL1        0.1233
      7 C         139.9574  140.5011  166.8760 C.2     1  UNL1       -0.0390
      8 C         139.0081  139.4658  166.3501 C.2     1  UNL1       -0.0066
      9 C         138.1106  139.7900  165.1927 C.2     1  UNL1        0.0182
     10 C         138.1625  141.1496  164.5613 C.2     1  UNL1        0.0777
     11 N         137.4048  141.7542  163.4166 N.2     1  UNL1       -0.2442
     12 C         137.8860  143.1633  163.2351 C.2     1  UNL1        0.0985
     13 C         138.9409  143.4296  164.2677 C.2     1  UNL1        0.0182
     14 C         139.1119  142.1850  165.0873 C.2     1  UNL1        0.0011
     15 C         140.0093  141.8608  166.2447 C.3     1  UNL1        0.0499
     16 C         141.9446  140.2477  167.0051 C.3     1  UNL1        0.0051
     17 C         142.9005  139.1029  166.8453 C.3     1  UNL1        0.0004
     18 C         141.8600  137.8920  164.7955 C.3     1  UNL1        0.0000
     19 C         143.0601  138.4400  165.5092 C.3     1  UNL1        0.0000
@<TRIPOS>BOND
     1    18    19    1
     2    19    17    1
     3    17    16    1
     4    16     1    1
     5     1     7    1
     6     7     8    2
     7     8     9    1
     8     9    10    2
     9    10    11    1
    10    11    12    2
    11    12    13    1
    12    13    14    2
    13    14    15    1
    14     1     2    1
    15     2     3    1
    16     3     4    1
    17     4     5    1
    18     5     1    1
    19    15     7    1
    20    14    10    1
    21     4     6    1
@<TRIPOS>MOLECULE
*****
 19 21 0 0 0
SMALL
GASTEIGER

@<TRIPOS>ATOM
      1 C         140.2304  141.8355  168.3412 C.3     1  UNL1        0.0313
      2 C         139.7357  141.5539  169.7290 C.3     1  UNL1        0.0222
      3 C         139.0622  140.2137  169.7180 C.3     1  UNL1        0.0689
      4 N         139.1406  139.6670  168.3233 N.3     1  UNL1       -0.2972
      5 C         139.8625  140.6693  167.4724 C.3     1  UNL1        0.0723
      6 H         138.2005  139.5156  167.9575 H       1  UNL1        0.1233
      7 C         140.8280  142.3849  167.0798 C.2     1  UNL1       -0.0390
      8 C         139.9827  143.1901  166.1381 C.2     1  UNL1       -0.0066
      9 C         140.5804  143.7395  164.8767 C.2     1  UNL1        0.0182
     10 C         142.0234  143.4837  164.5572 C.2     1  UNL1        0.0777
     11 N         142.8827  143.8937  163.3981 N.2     1  UNL1       -0.2442
     12 C         144.2592  143.3419  163.6236 C.2     1  UNL1        0.0985
     13 C         144.2506  142.5908  164.9220 C.2     1  UNL1        0.0182
     14 C         142.8688  142.6785  165.4990 C.2     1  UNL1        0.0011
     15 C         142.2711  142.1291  166.7603 C.3     1  UNL1        0.0499
     16 C         140.7232  143.1165  168.9462 C.3     1  UNL1        0.0051
     17 C         141.3932  143.1031  170.2882 C.3     1  UNL1        0.0004
     18 C         143.7393  142.0517  169.9136 C.3     1  UNL1        0.0000
     19 C         142.8875  143.1943  170.3814 C.3     1  UNL1        0.0000
@<TRIPOS>BOND
     1    18    19    1
     2    19    17    1
     3    17    16    1
     4    16     1    1
     5     1     7    1
     6     7     8    2
     7     8     9    1
     8     9    10    2
     9    10    11    1
    10    11    12    2
    11    12    13    1
    12    13    14    2
    13    14    15    1
    14     1     2    1
    15     2     3    1
    16     3     4    1
    17     4     5    1
    18     5     1    1
    19    15     7    1
    20    14    10    1
    21     4     6    1
@<TRIPOS>MOLECULE
*****
 19 21 0 0 0
SMALL
GASTEIGER

@<TRIPOS>ATOM
      1 C         139.8179  144.2689  164.0476 C.3     1  UNL1        0.0313
      2 C         138.8035  144.8262  163.0936 C.3     1  UNL1        0.0222
      3 C         139.4905  145.8384  162.2256 C.3     1  UNL1        0.0689
      4 N         140.9296  145.9067  162.6432 N.3     1  UNL1       -0.2972
      5 C         141.1320  144.9366  163.7693 C.3     1  UNL1        0.0723
      6 H         141.1551  146.8512  162.9553 H       1  UNL1        0.1233
      7 C         140.5916  143.5401  165.1062 C.2     1  UNL1       -0.0390
      8 C         141.9784  143.0477  164.8164 C.2     1  UNL1       -0.0066
      9 C         142.7521  142.3189  165.8750 C.2     1  UNL1        0.0182
     10 C         142.1387  142.0826  167.2233 C.2     1  UNL1        0.0777
     11 N         142.6553  141.4005  168.4553 N.2     1  UNL1       -0.2442
     12 C         141.5876  141.4714  169.5065 C.2     1  UNL1        0.0985
     13 C         140.4111  142.1973  168.9241 C.2     1  UNL1        0.0182
     14 C         140.7517  142.5750  167.5130 C.2     1  UNL1        0.0011
     15 C         139.9782  143.3038  166.4545 C.3     1  UNL1        0.0499
     16 C         138.6657  143.4487  164.5473 C.3     1  UNL1        0.0051
     17 C         137.7861  142.7203  163.5747 C.3     1  UNL1        0.0004
     18 C         138.2552  140.4735  164.7921 C.3     1  UNL1        0.0000
     19 C         137.6980  141.2236  163.6187 C.3     1  UNL1        0.0000
@<TRIPOS>BOND
     1    18    19    1
     2    19    17    1
     3    17    16    1
     4    16     1    1
     5     1     7    1
     6     7     8    2
     7     8     9    1
     8     9    10    2
     9    10    11    1
    10    11    12    2
    11    12    13    1
    12    13    14    2
    13    14    15    1
    14     1     2    1
    15     2     3    1
    16     3     4    1
    17     4     5    1
    18     5     1    1
    19    15     7    1
    20    14    10    1
    21     4     6    1
@<TRIPOS>MOLECULE
*****
 19 21 0 0 0
SMALL
GASTEIGER

@<TRIPOS>ATOM
      1 C         142.4712  140.8816  168.1539 C.3     1  UNL1        0.0313
      2 C         142.6053  139.7326  169.1087 C.3     1  UNL1        0.0222
      3 C         143.0547  140.2791  170.4314 C.3     1  UNL1        0.0689
      4 N         143.1984  141.7658  170.2940 N.3     1  UNL1       -0.2972
      5 C         142.8378  142.1383  168.8864 C.3     1  UNL1        0.0723
      6 H         144.1614  142.0400  170.4887 H       1  UNL1        0.1233
      7 C         142.2509  141.8085  166.9953 C.2     1  UNL1       -0.0390
      8 C         140.8560  142.1418  166.5561 C.2     1  UNL1       -0.0066
      9 C         140.6357  143.0687  165.3975 C.2     1  UNL1        0.0182
     10 C         141.8104  143.6623  164.6781 C.2     1  UNL1        0.0777
     11 N         141.9034  144.6002  163.5112 N.2     1  UNL1       -0.2442
     12 C         143.3559  144.8465  163.2291 C.2     1  UNL1        0.0985
     13 C         144.1606  144.0609  164.2218 C.2     1  UNL1        0.0182
     14 C         143.2054  143.3290  165.1173 C.2     1  UNL1        0.0011
     15 C         143.4257  142.4021  166.2758 C.3     1  UNL1        0.0499
     16 C         142.0586  139.8189  167.1792 C.3     1  UNL1        0.0051
     17 C         143.0547  138.7964  166.7183 C.3     1  UNL1        0.0004
     18 C         144.5340  139.3151  164.6463 C.3     1  UNL1        0.0000
     19 C         143.3428  138.6364  165.2549 C.3     1  UNL1        0.0000
@<TRIPOS>BOND
     1    18    19    1
     2    19    17    1
     3    17    16    1
     4    16     1    1
     5     1     7    1
     6     7     8    2
     7     8     9    1
     8     9    10    2
     9    10    11    1
    10    11    12    2
    11    12    13    1
    12    13    14    2
    13    14    15    1
    14     1     2    1
    15     2     3    1
    16     3     4    1
    17     4     5    1
    18     5     1    1
    19    15     7    1
    20    14    10    1
    21     4     6    1
@<TRIPOS>MOLECULE
*****
 19 21 0 0 0
SMALL
GASTEIGER

@<TRIPOS>ATOM
      1 C         138.5506  138.7541  165.5785 C.3     1  UNL1        0.0313
      2 C         138.4698  137.2568  165.5401 C.3     1  UNL1        0.0222
      3 C         137.6176  136.8089  166.6904 C.3     1  UNL1        0.0689
      4 N         137.1717  138.0294  167.4397 N.3     1  UNL1       -0.2972
      5 C         137.7483  139.2316  166.7526 C.3     1  UNL1        0.0723
      6 H         137.5072  137.9867  168.4020 H       1  UNL1        0.1233
      7 C         138.8105  140.2155  165.3621 C.2     1  UNL1       -0.0390
      8 C         139.7712  140.9464  166.2524 C.2     1  UNL1       -0.0066
      9 C         140.0310  142.4078  166.0359 C.2     1  UNL1        0.0182
     10 C         139.3300  143.1383  164.9291 C.2     1  UNL1        0.0777
     11 N         139.3847  144.5677  164.4777 N.2     1  UNL1       -0.2442
     12 C         138.4577  144.7201  163.3083 C.2     1  UNL1        0.0985
     13 C         137.8301  143.3850  163.0370 C.2     1  UNL1        0.0182
     14 C         138.3693  142.4073  164.0388 C.2     1  UNL1        0.0011
     15 C         138.1095  140.9459  164.2553 C.3     1  UNL1        0.0499
     16 C         139.4072  138.5821  164.3593 C.3     1  UNL1        0.0051
     17 C         140.5527  137.6138  164.3780 C.3     1  UNL1        0.0004
     18 C         142.5717  138.5133  165.7436 C.3     1  UNL1        0.0000
     19 C         141.9632  138.1214  164.4298 C.3     1  UNL1        0.0000
@<TRIPOS>BOND
     1    18    19    1
     2    19    17    1
     3    17    16    1
     4    16     1    1
     5     1     7    1
     6     7     8    2
     7     8     9    1
     8     9    10    2
     9    10    11    1
    10    11    12    2
    11    12    13    1
    12    13    14    2
    13    14    15    1
    14     1     2    1
    15     2     3    1
    16     3     4    1
    17     4     5    1
    18     5     1    1
    19    15     7    1
    20    14    10    1
    21     4     6    1
@<TRIPOS>MOLECULE
*****
 19 21 0 0 0
SMALL
GASTEIGER

@<TRIPOS>ATOM
      1 C         140.4336  142.0747  168.9117 C.3     1  UNL1        0.0313
      2 C         139.7934  141.4977  170.1393 C.3     1  UNL1        0.0222
      3 C         139.4580  142.6307  171.0633 C.3     1  UNL1        0.0689
      4 N         139.8910  143.9080  170.4068 N.3     1  UNL1       -0.2972
      5 C         140.4940  143.5645  169.0770 C.3     1  UNL1        0.0723
      6 H         140.5830  144.3793  170.9893 H       1  UNL1        0.1233
      7 C         141.0900  142.3526  167.5918 C.2     1  UNL1       -0.0390
      8 C         142.5229  141.9680  167.3710 C.2     1  UNL1       -0.0066
      9 C         143.1793  142.2458  166.0511 C.2     1  UNL1        0.0182
     10 C         142.4026  142.9083  164.9521 C.2     1  UNL1        0.0777
     11 N         142.7794  143.3058  163.5556 N.2     1  UNL1       -0.2442
     12 C         141.5793  143.9361  162.9134 C.2     1  UNL1        0.0985
     13 C         140.4608  143.9282  163.9129 C.2     1  UNL1        0.0182
     14 C         140.9697  143.2930  165.1729 C.2     1  UNL1        0.0011
     15 C         140.3134  143.0151  166.4928 C.3     1  UNL1        0.0499
     16 C         140.5106  140.6433  168.4704 C.3     1  UNL1        0.0051
     17 C         139.2531  139.8816  168.1728 C.3     1  UNL1        0.0004
     18 C         140.0421  139.2800  165.7716 C.3     1  UNL1        0.0000
     19 C         138.9343  139.4817  166.7627 C.3     1  UNL1        0.0000
@<TRIPOS>BOND
     1    18    19    1
     2    19    17    1
     3    17    16    1
     4    16     1    1
     5     1     7    1
     6     7     8    2
     7     8     9    1
     8     9    10    2
     9    10    11    1
    10    11    12    2
    11    12    13    1
    12    13    14    2
    13    14    15    1
    14     1     2    1
    15     2     3    1
    16     3     4    1
    17     4     5    1
    18     5     1    1
    19    15     7    1
    20    14    10    1
    21     4     6    1
@<TRIPOS>MOLECULE
*****
 19 21 0 0 0
SMALL
GASTEIGER

@<TRIPOS>ATOM
      1 C         140.1555  141.2017  168.2008 C.3     1  UNL1        0.0313
      2 C         140.4666  142.3924  169.0583 C.3     1  UNL1        0.0222
      3 C         140.0140  142.0882  170.4557 C.3     1  UNL1        0.0689
      4 N         139.4232  140.7094  170.4618 N.3     1  UNL1       -0.2972
      5 C         139.5107  140.1615  169.0682 C.3     1  UNL1        0.0723
      6 H         138.4476  140.7522  170.7563 H       1  UNL1        0.1233
      7 C         139.9712  140.1838  167.1145 C.2     1  UNL1       -0.0390
      8 C         138.6176  139.5864  166.8683 C.2     1  UNL1       -0.0066
      9 C         138.4333  138.5685  165.7820 C.2     1  UNL1        0.0182
     10 C         139.6027  138.1481  164.9419 C.2     1  UNL1        0.0777
     11 N         139.7253  137.1738  163.8080 N.2     1  UNL1       -0.2442
     12 C         141.1547  137.1691  163.3535 C.2     1  UNL1        0.0985
     13 C         141.9156  138.1405  164.2064 C.2     1  UNL1        0.0182
     14 C         140.9563  138.7456  165.1881 C.2     1  UNL1        0.0011
     15 C         141.1406  139.7634  166.2744 C.3     1  UNL1        0.0499
     16 C         140.7618  142.0289  167.1063 C.3     1  UNL1        0.0051
     17 C         140.1322  143.3332  166.7156 C.3     1  UNL1        0.0004
     18 C         138.8301  144.7758  164.9912 C.3     1  UNL1        0.0000
     19 C         139.4686  143.4747  165.3779 C.3     1  UNL1        0.0000
@<TRIPOS>BOND
     1    18    19    1
     2    19    17    1
     3    17    16    1
     4    16     1    1
     5     1     7    1
     6     7     8    2
     7     8     9    1
     8     9    10    2
     9    10    11    1
    10    11    12    2
    11    12    13    1
    12    13    14    2
    13    14    15    1
    14     1     2    1
    15     2     3    1
    16     3     4    1
    17     4     5    1
    18     5     1    1
    19    15     7    1
    20    14    10    1
    21     4     6    1
