@<TRIPOS>MOLECULE
*****
 26 30 0 0 0
SMALL
GASTEIGER

@<TRIPOS>ATOM
      1 O         137.9977  139.5000  165.4584 O.2     1  UNL1       -0.2520
      2 C         139.3287  138.9250  165.0737 C.2     1  UNL1        0.3111
      3 N         139.6055  138.0683  163.8740 N.am    1  UNL1       -0.2606
      4 C         141.0645  137.7196  163.8801 C.3     1  UNL1        0.1169
      5 C         141.6892  138.3608  165.0837 C.3     1  UNL1        0.1212
      6 N         140.6164  139.1057  165.8214 N.am    1  UNL1       -0.2414
      7 C         140.7994  139.8931  167.0849 C.ar    1  UNL1        0.0554
      8 C         139.7301  139.8822  168.1368 C.ar    1  UNL1        0.0155
      9 C         139.9129  140.6696  169.4004 C.ar    1  UNL1        0.0078
     10 C         141.1651  141.4679  169.6120 C.ar    1  UNL1        0.0296
     11 S         141.6227  142.3353  170.7471 S.2     1  UNL1       -0.0864
     12 C         142.9748  142.8822  170.3967 C.ar    1  UNL1        0.0354
     13 C         143.3529  142.3529  169.0450 C.ar    1  UNL1        0.0075
     14 C         142.2344  141.4788  168.5601 C.ar    1  UNL1        0.0077
     15 C         142.0515  140.6914  167.2965 C.ar    1  UNL1        0.0155
     16 C         138.6000  137.6363  162.8481 C.3     1  UNL1        0.1123
     17 C         138.0957  138.6179  161.8323 C.3     1  UNL1        0.0944
     18 N         138.3835  140.0810  161.9958 N.3     1  UNL1       -0.2637
     19 C         137.4600  141.0996  162.5955 C.3     1  UNL1        0.0992
     20 C         138.1511  142.4304  162.5587 C.ar    1  UNL1       -0.0088
     21 C         137.7250  143.7955  163.0115 C.ar    1  UNL1       -0.0032
     22 C         138.6495  144.9644  162.8418 C.ar    1  UNL1       -0.0003
     23 C         140.0001  144.7683  162.2193 C.ar    1  UNL1       -0.0003
     24 C         140.4261  143.4033  161.7665 C.ar    1  UNL1       -0.0032
     25 C         139.5016  142.2343  161.9362 C.ar    1  UNL1       -0.0088
     26 C         139.6453  140.7823  161.5883 C.3     1  UNL1        0.0992
@<TRIPOS>BOND
     1     1     2    2
     2     2     3   am
     3     3    16    1
     4    16    17    1
     5    17    18    1
     6    18    19    1
     7    19    20    1
     8    20    21   ar
     9    21    22   ar
    10    22    23   ar
    11    23    24   ar
    12    24    25   ar
    13    25    26    1
    14     3     4    1
    15     4     5    1
    16     5     6    1
    17     6     7    1
    18     7     8   ar
    19     8     9   ar
    20     9    10   ar
    21    10    11   ar
    22    11    12   ar
    23    12    13   ar
    24    13    14   ar
    25    14    15   ar
    26     6     2   am
    27    15     7   ar
    28    26    18    1
    29    14    10   ar
    30    25    20   ar
@<TRIPOS>MOLECULE
*****
 26 30 0 0 0
SMALL
GASTEIGER

@<TRIPOS>ATOM
      1 O         137.9652  140.7165  164.4592 O.2     1  UNL1       -0.2520
      2 C         138.7401  139.5108  164.0165 C.2     1  UNL1        0.3111
      3 N         138.5437  138.7588  162.7336 N.am    1  UNL1       -0.2606
      4 C         139.5297  137.6286  162.7032 C.3     1  UNL1        0.1169
      5 C         140.3354  137.6824  163.9674 C.3     1  UNL1        0.1212
      6 N         139.8474  138.8456  164.7790 N.am    1  UNL1       -0.2414
      7 C         140.3742  139.2692  166.1180 C.ar    1  UNL1        0.0554
      8 C         141.8536  139.3159  166.3613 C.ar    1  UNL1        0.0155
      9 C         142.3805  139.7395  167.7002 C.ar    1  UNL1        0.0078
     10 C         141.4280  140.1164  168.7960 C.ar    1  UNL1        0.0296
     11 S         141.6515  140.5704  170.2081 S.2     1  UNL1       -0.0864
     12 C         140.3102  140.8043  170.8376 C.ar    1  UNL1        0.0354
     13 C         139.2577  140.4949  169.8145 C.ar    1  UNL1        0.0075
     14 C         139.9486  140.0697  168.5527 C.ar    1  UNL1        0.0077
     15 C         139.4217  139.6462  167.2137 C.ar    1  UNL1        0.0155
     16 C         137.5380  139.0803  161.6682 C.3     1  UNL1        0.1123
     17 C         137.8043  140.1912  160.6961 C.3     1  UNL1        0.0944
     18 N         138.6073  141.3843  161.1223 N.3     1  UNL1       -0.2637
     19 C         138.0548  142.6844  161.6267 C.3     1  UNL1        0.0992
     20 C         139.2098  143.5905  161.9351 C.ar    1  UNL1       -0.0088
     21 C         139.2720  144.9938  162.4611 C.ar    1  UNL1       -0.0032
     22 C         140.6005  145.6570  162.6733 C.ar    1  UNL1       -0.0003
     23 C         141.8669  144.9168  162.3595 C.ar    1  UNL1       -0.0003
     24 C         141.8047  143.5135  161.8335 C.ar    1  UNL1       -0.0032
     25 C         140.4761  142.8503  161.6213 C.ar    1  UNL1       -0.0088
     26 C         140.1038  141.4868  161.1190 C.3     1  UNL1        0.0992
@<TRIPOS>BOND
     1     1     2    2
     2     2     3   am
     3     3    16    1
     4    16    17    1
     5    17    18    1
     6    18    19    1
     7    19    20    1
     8    20    21   ar
     9    21    22   ar
    10    22    23   ar
    11    23    24   ar
    12    24    25   ar
    13    25    26    1
    14     3     4    1
    15     4     5    1
    16     5     6    1
    17     6     7    1
    18     7     8   ar
    19     8     9   ar
    20     9    10   ar
    21    10    11   ar
    22    11    12   ar
    23    12    13   ar
    24    13    14   ar
    25    14    15   ar
    26     6     2   am
    27    15     7   ar
    28    26    18    1
    29    14    10   ar
    30    25    20   ar
@<TRIPOS>MOLECULE
*****
 26 30 0 0 0
SMALL
GASTEIGER

@<TRIPOS>ATOM
      1 O         140.7792  137.9576  165.2732 O.2     1  UNL1       -0.2520
      2 C         139.7691  138.9718  164.8245 C.2     1  UNL1        0.3111
      3 N         139.0855  139.0045  163.4897 N.am    1  UNL1       -0.2606
      4 C         138.1593  140.1843  163.4721 C.3     1  UNL1        0.1169
      5 C         138.2705  140.8806  164.7961 C.3     1  UNL1        0.1212
      6 N         139.2654  140.1313  165.6319 N.am    1  UNL1       -0.2414
      7 C         139.6832  140.4802  167.0295 C.ar    1  UNL1        0.0554
      8 C         138.9529  139.8910  168.1998 C.ar    1  UNL1        0.0155
      9 C         139.3707  140.2399  169.5975 C.ar    1  UNL1        0.0078
     10 C         140.5188  141.1780  169.8250 C.ar    1  UNL1        0.0296
     11 S         141.1530  141.7027  171.0791 S.2     1  UNL1       -0.0864
     12 C         142.2752  142.6161  170.6839 C.ar    1  UNL1        0.0354
     13 C         142.3347  142.6560  169.1856 C.ar    1  UNL1        0.0075
     14 C         141.2491  141.7672  168.6548 C.ar    1  UNL1        0.0077
     15 C         140.8313  141.4183  167.2570 C.ar    1  UNL1        0.0155
     16 C         139.2919  138.0288  162.3693 C.3     1  UNL1        0.1123
     17 C         140.5632  138.0581  161.5739 C.3     1  UNL1        0.0944
     18 N         141.6833  138.9679  161.9833 N.3     1  UNL1       -0.2637
     19 C         142.8749  138.5829  162.8092 C.3     1  UNL1        0.0992
     20 C         143.7365  139.7995  162.9751 C.ar    1  UNL1       -0.0088
     21 C         145.0360  140.0189  163.6914 C.ar    1  UNL1       -0.0032
     22 C         145.6765  141.3753  163.6843 C.ar    1  UNL1       -0.0003
     23 C         145.0175  142.5121  162.9610 C.ar    1  UNL1       -0.0003
     24 C         143.7180  142.2927  162.2447 C.ar    1  UNL1       -0.0032
     25 C         143.0775  140.9364  162.2518 C.ar    1  UNL1       -0.0088
     26 C         141.8086  140.4224  161.6389 C.3     1  UNL1        0.0992
@<TRIPOS>BOND
     1     1     2    2
     2     2     3   am
     3     3    16    1
     4    16    17    1
     5    17    18    1
     6    18    19    1
     7    19    20    1
     8    20    21   ar
     9    21    22   ar
    10    22    23   ar
    11    23    24   ar
    12    24    25   ar
    13    25    26    1
    14     3     4    1
    15     4     5    1
    16     5     6    1
    17     6     7    1
    18     7     8   ar
    19     8     9   ar
    20     9    10   ar
    21    10    11   ar
    22    11    12   ar
    23    12    13   ar
    24    13    14   ar
    25    14    15   ar
    26     6     2   am
    27    15     7   ar
    28    26    18    1
    29    14    10   ar
    30    25    20   ar
@<TRIPOS>MOLECULE
*****
 26 30 0 0 0
SMALL
GASTEIGER

@<TRIPOS>ATOM
      1 O         143.8944  143.2656  165.1571 O.2     1  UNL1       -0.2520
      2 C         143.8923  141.8293  164.7247 C.2     1  UNL1        0.3111
      3 N         144.4519  141.2946  163.4398 N.am    1  UNL1       -0.2606
      4 C         144.2357  139.8103  163.4222 C.3     1  UNL1        0.1169
      5 C         143.5425  139.4278  164.6963 C.3     1  UNL1        0.1212
      6 N         143.3302  140.6756  165.5012 N.am    1  UNL1       -0.2414
      7 C         142.6717  140.7556  166.8465 C.ar    1  UNL1        0.0554
      8 C         142.7603  139.5969  167.7949 C.ar    1  UNL1        0.0155
      9 C         142.1017  139.6768  169.1402 C.ar    1  UNL1        0.0078
     10 C         141.3545  140.9154  169.5371 C.ar    1  UNL1        0.0296
     11 S         140.6099  141.2814  170.7868 S.2     1  UNL1       -0.0864
     12 C         140.0612  142.6663  170.6107 C.ar    1  UNL1        0.0354
     13 C         140.4666  143.1563  169.2522 C.ar    1  UNL1        0.0075
     14 C         141.2659  142.0741  168.5886 C.ar    1  UNL1        0.0077
     15 C         141.9245  141.9942  167.2433 C.ar    1  UNL1        0.0155
     16 C         145.1118  142.1022  162.3617 C.3     1  UNL1        0.1123
     17 C         144.2820  142.9587  161.4519 C.3     1  UNL1        0.0944
     18 N         142.8255  143.1696  161.7422 N.3     1  UNL1       -0.2637
     19 C         142.2160  144.4001  162.3458 C.3     1  UNL1        0.0992
     20 C         140.7367  144.1781  162.4566 C.ar    1  UNL1       -0.0088
     21 C         139.6278  145.0446  162.9757 C.ar    1  UNL1       -0.0032
     22 C         138.2141  144.5434  162.9596 C.ar    1  UNL1       -0.0003
     23 C         137.9094  143.1757  162.4245 C.ar    1  UNL1       -0.0003
     24 C         139.0182  142.3091  161.9055 C.ar    1  UNL1       -0.0032
     25 C         140.4319  142.8103  161.9215 C.ar    1  UNL1       -0.0088
     26 C         141.7229  142.1871  161.4800 C.3     1  UNL1        0.0992
@<TRIPOS>BOND
     1     1     2    2
     2     2     3   am
     3     3    16    1
     4    16    17    1
     5    17    18    1
     6    18    19    1
     7    19    20    1
     8    20    21   ar
     9    21    22   ar
    10    22    23   ar
    11    23    24   ar
    12    24    25   ar
    13    25    26    1
    14     3     4    1
    15     4     5    1
    16     5     6    1
    17     6     7    1
    18     7     8   ar
    19     8     9   ar
    20     9    10   ar
    21    10    11   ar
    22    11    12   ar
    23    12    13   ar
    24    13    14   ar
    25    14    15   ar
    26     6     2   am
    27    15     7   ar
    28    26    18    1
    29    14    10   ar
    30    25    20   ar
@<TRIPOS>MOLECULE
*****
 26 30 0 0 0
SMALL
GASTEIGER

@<TRIPOS>ATOM
      1 O         138.1638  142.4080  164.9492 O.2     1  UNL1       -0.2520
      2 C         138.5902  140.9981  164.6656 C.2     1  UNL1        0.3111
      3 N         138.3502  140.2438  163.3914 N.am    1  UNL1       -0.2606
      4 C         138.9431  138.8744  163.5448 C.3     1  UNL1        0.1169
      5 C         139.5494  138.7825  164.9137 C.3     1  UNL1        0.1212
      6 N         139.3313  140.0950  165.6064 N.am    1  UNL1       -0.2414
      7 C         139.7762  140.4431  166.9959 C.ar    1  UNL1        0.0554
      8 C         139.0645  139.8585  168.1799 C.ar    1  UNL1        0.0155
      9 C         139.5093  140.2066  169.5694 C.ar    1  UNL1        0.0078
     10 C         140.6659  141.1394  169.7750 C.ar    1  UNL1        0.0296
     11 S         141.3253  141.6622  171.0168 S.2     1  UNL1       -0.0864
     12 C         142.4445  142.5699  170.6003 C.ar    1  UNL1        0.0354
     13 C         142.4768  142.6082  169.1011 C.ar    1  UNL1        0.0075
     14 C         141.3775  141.7241  168.5911 C.ar    1  UNL1        0.0077
     15 C         140.9327  141.3759  167.2015 C.ar    1  UNL1        0.0155
     16 C         137.6418  140.7669  162.1771 C.3     1  UNL1        0.1123
     17 C         138.3311  141.7408  161.2681 C.3     1  UNL1        0.0944
     18 N         139.6228  142.3758  161.6903 N.3     1  UNL1       -0.2637
     19 C         139.7691  143.6893  162.3997 C.3     1  UNL1        0.0992
     20 C         141.2318  143.9341  162.6251 C.ar    1  UNL1       -0.0088
     21 C         141.9715  145.0651  163.2758 C.ar    1  UNL1       -0.0032
     22 C         143.4690  145.0339  163.3564 C.ar    1  UNL1       -0.0003
     23 C         144.2267  143.8717  162.7863 C.ar    1  UNL1       -0.0003
     24 C         143.4869  142.7406  162.1356 C.ar    1  UNL1       -0.0032
     25 C         141.9895  142.7718  162.0550 C.ar    1  UNL1       -0.0088
     26 C         140.9951  141.8088  161.4773 C.3     1  UNL1        0.0992
@<TRIPOS>BOND
     1     1     2    2
     2     2     3   am
     3     3    16    1
     4    16    17    1
     5    17    18    1
     6    18    19    1
     7    19    20    1
     8    20    21   ar
     9    21    22   ar
    10    22    23   ar
    11    23    24   ar
    12    24    25   ar
    13    25    26    1
    14     3     4    1
    15     4     5    1
    16     5     6    1
    17     6     7    1
    18     7     8   ar
    19     8     9   ar
    20     9    10   ar
    21    10    11   ar
    22    11    12   ar
    23    12    13   ar
    24    13    14   ar
    25    14    15   ar
    26     6     2   am
    27    15     7   ar
    28    26    18    1
    29    14    10   ar
    30    25    20   ar
@<TRIPOS>MOLECULE
*****
 26 30 0 0 0
SMALL
GASTEIGER

@<TRIPOS>ATOM
      1 O         140.4057  137.8547  163.4031 O.2     1  UNL1       -0.2520
      2 C         139.3790  138.8668  162.9890 C.2     1  UNL1        0.3111
      3 N         138.8970  139.1121  161.5899 N.am    1  UNL1       -0.2606
      4 C         137.8740  140.2083  161.6375 C.3     1  UNL1        0.1169
      5 C         137.7239  140.6403  163.0661 C.3     1  UNL1        0.1212
      6 N         138.6540  139.8113  163.9014 N.am    1  UNL1       -0.2414
      7 C         138.8284  139.9095  165.3879 C.ar    1  UNL1        0.0554
      8 C         138.0533  139.0010  166.2956 C.ar    1  UNL1        0.0155
      9 C         138.2277  139.0991  167.7822 C.ar    1  UNL1        0.0078
     10 C         139.1771  140.1058  168.3611 C.ar    1  UNL1        0.0296
     11 S         139.5547  140.4317  169.7758 S.2     1  UNL1       -0.0864
     12 C         140.5632  141.5417  169.7424 C.ar    1  UNL1        0.0354
     13 C         140.8088  141.9018  168.3071 C.ar    1  UNL1        0.0075
     14 C         139.9522  141.0143  167.4534 C.ar    1  UNL1        0.0077
     15 C         139.7778  140.9162  165.9668 C.ar    1  UNL1        0.0155
     16 C         139.3571  138.3885  160.3592 C.3     1  UNL1        0.1123
     17 C         140.5444  138.8916  159.5931 C.3     1  UNL1        0.0944
     18 N         141.5620  139.7599  160.2719 N.3     1  UNL1       -0.2637
     19 C         142.7225  139.2811  161.0929 C.3     1  UNL1        0.0992
     20 C         143.4754  140.4846  161.5773 C.ar    1  UNL1       -0.0088
     21 C         144.7042  140.6252  162.4260 C.ar    1  UNL1       -0.0032
     22 C         145.2378  141.9884  162.7530 C.ar    1  UNL1       -0.0003
     23 C         144.5427  143.2110  162.2314 C.ar    1  UNL1       -0.0003
     24 C         143.3139  143.0704  161.3827 C.ar    1  UNL1       -0.0032
     25 C         142.7803  141.7072  161.0557 C.ar    1  UNL1       -0.0088
     26 C         141.5977  141.2592  160.2489 C.3     1  UNL1        0.0992
@<TRIPOS>BOND
     1     1     2    2
     2     2     3   am
     3     3    16    1
     4    16    17    1
     5    17    18    1
     6    18    19    1
     7    19    20    1
     8    20    21   ar
     9    21    22   ar
    10    22    23   ar
    11    23    24   ar
    12    24    25   ar
    13    25    26    1
    14     3     4    1
    15     4     5    1
    16     5     6    1
    17     6     7    1
    18     7     8   ar
    19     8     9   ar
    20     9    10   ar
    21    10    11   ar
    22    11    12   ar
    23    12    13   ar
    24    13    14   ar
    25    14    15   ar
    26     6     2   am
    27    15     7   ar
    28    26    18    1
    29    14    10   ar
    30    25    20   ar
@<TRIPOS>MOLECULE
*****
 26 30 0 0 0
SMALL
GASTEIGER

@<TRIPOS>ATOM
      1 O         140.5647  139.0573  164.2770 O.2     1  UNL1       -0.2520
      2 C         142.0286  139.3653  164.1673 C.2     1  UNL1        0.3111
      3 N         142.8766  139.1922  162.9421 N.am    1  UNL1       -0.2606
      4 C         144.2737  139.6205  163.2811 C.3     1  UNL1        0.1169
      5 C         144.2890  140.0583  164.7157 C.3     1  UNL1        0.1212
      6 N         142.9015  139.9006  165.2634 N.am    1  UNL1       -0.2414
      7 C         142.4639  140.2218  166.6616 C.ar    1  UNL1        0.0554
      8 C         142.7595  139.2651  167.7785 C.ar    1  UNL1        0.0155
      9 C         142.3219  139.5863  169.1768 C.ar    1  UNL1        0.0078
     10 C         141.5886  140.8642  169.4583 C.ar    1  UNL1        0.0296
     11 S         141.0370  141.4466  170.7258 S.2     1  UNL1       -0.0864
     12 C         140.4004  142.7633  170.3924 C.ar    1  UNL1        0.0354
     13 C         140.5586  142.9947  168.9187 C.ar    1  UNL1        0.0075
     14 C         141.2930  141.8209  168.3414 C.ar    1  UNL1        0.0077
     15 C         141.7306  141.4997  166.9431 C.ar    1  UNL1        0.0155
     16 C         142.4096  138.6805  161.6117 C.3     1  UNL1        0.1123
     17 C         141.6613  139.5873  160.6801 C.3     1  UNL1        0.0944
     18 N         140.8913  140.7532  161.2258 N.3     1  UNL1       -0.2637
     19 C         139.4275  140.7678  161.5528 C.3     1  UNL1        0.0992
     20 C         139.0814  142.1328  162.0694 C.ar    1  UNL1       -0.0088
     21 C         137.7896  142.7280  162.5458 C.ar    1  UNL1       -0.0032
     22 C         137.7479  144.1522  163.0145 C.ar    1  UNL1       -0.0003
     23 C         138.9979  144.9814  163.0067 C.ar    1  UNL1       -0.0003
     24 C         140.2897  144.3862  162.5303 C.ar    1  UNL1       -0.0032
     25 C         140.3314  142.9620  162.0616 C.ar    1  UNL1       -0.0088
     26 C         141.4500  142.1093  161.5403 C.3     1  UNL1        0.0992
@<TRIPOS>BOND
     1     1     2    2
     2     2     3   am
     3     3    16    1
     4    16    17    1
     5    17    18    1
     6    18    19    1
     7    19    20    1
     8    20    21   ar
     9    21    22   ar
    10    22    23   ar
    11    23    24   ar
    12    24    25   ar
    13    25    26    1
    14     3     4    1
    15     4     5    1
    16     5     6    1
    17     6     7    1
    18     7     8   ar
    19     8     9   ar
    20     9    10   ar
    21    10    11   ar
    22    11    12   ar
    23    12    13   ar
    24    13    14   ar
    25    14    15   ar
    26     6     2   am
    27    15     7   ar
    28    26    18    1
    29    14    10   ar
    30    25    20   ar
@<TRIPOS>MOLECULE
*****
 26 30 0 0 0
SMALL
GASTEIGER

@<TRIPOS>ATOM
      1 O         139.5541  137.7082  161.7062 O.2     1  UNL1       -0.2520
      2 C         140.6819  138.1254  162.6030 C.2     1  UNL1        0.3111
      3 N         140.7029  138.0224  164.0993 N.am    1  UNL1       -0.2606
      4 C         142.0207  138.5522  164.5819 C.3     1  UNL1        0.1169
      5 C         142.8140  138.9825  163.3838 C.3     1  UNL1        0.1212
      6 N         141.9866  138.7188  162.1607 N.am    1  UNL1       -0.2414
      7 C         142.3927  138.9992  160.7443 C.ar    1  UNL1        0.0554
      8 C         142.8240  140.3799  160.3471 C.ar    1  UNL1        0.0155
      9 C         143.2301  140.6604  158.9307 C.ar    1  UNL1        0.0078
     10 C         143.2048  139.5603  157.9114 C.ar    1  UNL1        0.0296
     11 S         143.5473  139.5368  156.4511 S.2     1  UNL1       -0.0864
     12 C         143.3276  138.1416  155.9458 C.ar    1  UNL1        0.0354
     13 C         142.8494  137.3028  157.0938 C.ar    1  UNL1        0.0075
     14 C         142.7735  138.1796  158.3086 C.ar    1  UNL1        0.0077
     15 C         142.3675  137.8991  159.7250 C.ar    1  UNL1        0.0155
     16 C         139.5999  137.4842  164.9616 C.3     1  UNL1        0.1123
     17 C         138.5656  138.4139  165.5236 C.3     1  UNL1        0.0944
     18 N         138.5764  139.8651  165.1444 N.3     1  UNL1       -0.2637
     19 C         139.2808  140.9643  165.8832 C.3     1  UNL1        0.0992
     20 C         139.0244  142.2505  165.1552 C.ar    1  UNL1       -0.0088
     21 C         139.4652  143.6594  165.4212 C.ar    1  UNL1       -0.0032
     22 C         139.0432  144.7640  164.4985 C.ar    1  UNL1       -0.0003
     23 C         138.1804  144.4599  163.3097 C.ar    1  UNL1       -0.0003
     24 C         137.7396  143.0510  163.0438 C.ar    1  UNL1       -0.0032
     25 C         138.1617  141.9463  163.9665 C.ar    1  UNL1       -0.0088
     26 C         137.8848  140.4721  163.9598 C.3     1  UNL1        0.0992
@<TRIPOS>BOND
     1     1     2    2
     2     2     3   am
     3     3    16    1
     4    16    17    1
     5    17    18    1
     6    18    19    1
     7    19    20    1
     8    20    21   ar
     9    21    22   ar
    10    22    23   ar
    11    23    24   ar
    12    24    25   ar
    13    25    26    1
    14     3     4    1
    15     4     5    1
    16     5     6    1
    17     6     7    1
    18     7     8   ar
    19     8     9   ar
    20     9    10   ar
    21    10    11   ar
    22    11    12   ar
    23    12    13   ar
    24    13    14   ar
    25    14    15   ar
    26     6     2   am
    27    15     7   ar
    28    26    18    1
    29    14    10   ar
    30    25    20   ar
@<TRIPOS>MOLECULE
*****
 26 30 0 0 0
SMALL
GASTEIGER

@<TRIPOS>ATOM
      1 O         144.0862  139.8163  164.8208 O.2     1  UNL1       -0.2520
      2 C         143.6714  141.2090  164.4490 C.2     1  UNL1        0.3111
      3 N         143.9269  141.8836  163.1339 N.am    1  UNL1       -0.2606
      4 C         143.3416  143.2633  163.1992 C.3     1  UNL1        0.1169
      5 C         142.7245  143.4412  164.5548 C.3     1  UNL1        0.1212
      6 N         142.9283  142.1716  165.3272 N.am    1  UNL1       -0.2414
      7 C         142.4695  141.9106  166.7312 C.ar    1  UNL1        0.0554
      8 C         143.2992  142.3775  167.8903 C.ar    1  UNL1        0.0155
      9 C         142.8405  142.1165  169.2944 C.ar    1  UNL1        0.0078
     10 C         141.5520  141.3885  169.5393 C.ar    1  UNL1        0.0296
     11 S         140.8490  140.9897  170.8030 S.2     1  UNL1       -0.0864
     12 C         139.5849  140.2763  170.4248 C.ar    1  UNL1        0.0354
     13 C         139.5065  140.2341  168.9274 C.ar    1  UNL1        0.0075
     14 C         140.7224  140.9215  168.3802 C.ar    1  UNL1        0.0077
     15 C         141.1811  141.1826  166.9761 C.ar    1  UNL1        0.0155
     16 C         144.6420  141.2840  161.9596 C.3     1  UNL1        0.1123
     17 C         144.1090  140.0405  161.3119 C.3     1  UNL1        0.0944
     18 N         142.6384  139.7470  161.3488 N.3     1  UNL1       -0.2637
     19 C         141.5686  140.5101  160.6256 C.3     1  UNL1        0.0992
     20 C         140.2485  139.8736  160.9453 C.ar    1  UNL1       -0.0088
     21 C         138.8480  140.1977  160.5169 C.ar    1  UNL1       -0.0032
     22 C         137.7015  139.3652  161.0093 C.ar    1  UNL1       -0.0003
     23 C         137.9555  138.2086  161.9300 C.ar    1  UNL1       -0.0003
     24 C         139.3560  137.8845  162.3584 C.ar    1  UNL1       -0.0032
     25 C         140.5025  138.7170  161.8660 C.ar    1  UNL1       -0.0088
     26 C         141.9795  138.6388  162.1154 C.3     1  UNL1        0.0992
@<TRIPOS>BOND
     1     1     2    2
     2     2     3   am
     3     3    16    1
     4    16    17    1
     5    17    18    1
     6    18    19    1
     7    19    20    1
     8    20    21   ar
     9    21    22   ar
    10    22    23   ar
    11    23    24   ar
    12    24    25   ar
    13    25    26    1
    14     3     4    1
    15     4     5    1
    16     5     6    1
    17     6     7    1
    18     7     8   ar
    19     8     9   ar
    20     9    10   ar
    21    10    11   ar
    22    11    12   ar
    23    12    13   ar
    24    13    14   ar
    25    14    15   ar
    26     6     2   am
    27    15     7   ar
    28    26    18    1
    29    14    10   ar
    30    25    20   ar
