@<TRIPOS>MOLECULE
*****
 30 32 0 0 0
SMALL
GASTEIGER

@<TRIPOS>ATOM
      1 C         140.3877  145.1679  160.6340 C.ar    1  UNL1        0.2181
      2 N         141.8706  144.9870  160.7681 N.ar    1  UNL1       -0.1986
      3 C         142.4356  144.2914  161.9710 C.ar    1  UNL1        0.1388
      4 C         141.5175  143.7767  163.0397 C.ar    1  UNL1        0.0786
      5 S         141.7819  143.0561  164.3285 S.2     1  UNL1       -0.0826
      6 C         140.4623  142.7918  164.9908 C.ar    1  UNL1        0.0311
      7 C         139.3824  143.3489  164.1115 C.ar    1  UNL1        0.0263
      8 C         140.0345  143.9576  162.9056 C.ar    1  UNL1        0.0933
      9 N         139.4696  144.6532  161.7027 N.ar    1  UNL1       -0.2132
     10 C         140.2584  142.0930  166.3024 C.ar    1  UNL1        0.0060
     11 C         140.6544  142.7686  167.5817 C.ar    1  UNL1        0.0004
     12 C         140.4505  142.0697  168.8932 C.ar    1  UNL1        0.0039
     13 C         139.8506  140.6953  168.9254 C.ar    1  UNL1        0.0714
     14 C         139.4546  140.0196  167.6461 C.ar    1  UNL1        0.0039
     15 C         139.6585  140.7185  166.3346 C.ar    1  UNL1        0.0004
     16 C         139.6467  139.9964  170.2369 C.3     1  UNL1        0.4186
     17 F         139.4428  139.2977  171.5484 F       1  UNL1       -0.1659
     18 F         141.1247  139.7632  170.3424 F       1  UNL1       -0.1659
     19 F         138.1687  140.2298  170.1314 F       1  UNL1       -0.1659
     20 C         140.3821  145.5792  158.0687 C.3     1  UNL1        0.1108
     21 N         139.8227  145.8636  159.4311 N.pl3   1  UNL1       -0.3013
     22 H         139.0847  146.5068  159.5358 H       1  UNL1        0.1497
     23 N         143.9186  144.1105  162.1051 N.pl3   1  UNL1       -0.3176
     24 H         144.4456  144.7460  162.6414 H       1  UNL1        0.1482
     25 C         144.5988  142.9613  161.4219 C.3     1  UNL1        0.0896
     26 C         144.9586  141.7316  162.2020 C.3     1  UNL1        0.0385
     27 C         144.0465  140.5409  162.1878 C.3     1  UNL1        0.0739
     28 N         143.8248  139.7508  163.4435 N.3     1  UNL1       -0.2703
     29 C         144.9747  139.4670  164.3638 C.3     1  UNL1        0.0897
     30 C         142.4531  139.2446  163.7787 C.3     1  UNL1        0.0897
@<TRIPOS>BOND
     1    20    21    1
     2    21     1    1
     3     1     2   ar
     4     2     3   ar
     5     3    23    1
     6    23    25    1
     7    25    26    1
     8    26    27    1
     9    27    28    1
    10    28    29    1
    11    28    30    1
    12     3     4   ar
    13     4     5   ar
    14     5     6   ar
    15     6    10    1
    16    10    11   ar
    17    11    12   ar
    18    12    13   ar
    19    13    16    1
    20    16    17    1
    21    16    18    1
    22    16    19    1
    23    13    14   ar
    24    14    15   ar
    25     6     7   ar
    26     7     8   ar
    27     8     9   ar
    28     9     1   ar
    29     8     4   ar
    30    15    10   ar
    31    21    22    1
    32    23    24    1
@<TRIPOS>MOLECULE
*****
 30 32 0 0 0
SMALL
GASTEIGER

@<TRIPOS>ATOM
      1 C         141.2653  144.6449  160.2138 C.ar    1  UNL1        0.2181
      2 N         140.3268  143.5955  159.6963 N.ar    1  UNL1       -0.1986
      3 C         139.7319  142.5910  160.6382 C.ar    1  UNL1        0.1388
      4 C         140.0755  142.6360  162.0976 C.ar    1  UNL1        0.0786
      5 S         139.6475  141.7849  163.2562 S.2     1  UNL1       -0.0826
      6 C         140.3215  142.3084  164.4898 C.ar    1  UNL1        0.0311
      7 C         141.1661  143.4830  164.0936 C.ar    1  UNL1        0.0263
      8 C         141.0140  143.6855  162.6151 C.ar    1  UNL1        0.0933
      9 N         141.6089  144.6900  161.6732 N.ar    1  UNL1       -0.2132
     10 C         140.1764  141.7544  165.8762 C.ar    1  UNL1        0.0060
     11 C         139.6097  140.3806  166.0795 C.ar    1  UNL1        0.0004
     12 C         139.4647  139.8267  167.4659 C.ar    1  UNL1        0.0039
     13 C         139.8863  140.6467  168.6491 C.ar    1  UNL1        0.0714
     14 C         140.4531  142.0205  168.4458 C.ar    1  UNL1        0.0039
     15 C         140.5981  142.5744  167.0594 C.ar    1  UNL1        0.0004
     16 C         139.7413  140.0928  170.0355 C.3     1  UNL1        0.4186
     17 F         139.5962  139.5389  171.4218 F       1  UNL1       -0.1659
     18 F         141.0273  139.3388  169.8689 F       1  UNL1       -0.1659
     19 F         138.4552  140.8467  170.2021 F       1  UNL1       -0.1659
     20 C         141.3403  145.7622  157.8694 C.3     1  UNL1        0.1108
     21 N         141.8602  145.6494  159.2719 N.pl3   1  UNL1       -0.3013
     22 H         142.5919  146.2347  159.5742 H       1  UNL1        0.1497
     23 N         138.7934  141.5415  160.1206 N.pl3   1  UNL1       -0.3176
     24 H         137.8208  141.6894  160.1577 H       1  UNL1        0.1482
     25 C         139.3368  140.2667  159.5466 C.3     1  UNL1        0.0896
     26 C         139.1504  138.9733  160.2830 C.3     1  UNL1        0.0385
     27 C         140.2843  138.3898  161.0729 C.3     1  UNL1        0.0739
     28 N         140.0373  137.8420  162.4473 N.3     1  UNL1       -0.2703
     29 C         141.1601  137.2110  163.2161 C.3     1  UNL1        0.0897
     30 C         138.6675  137.9254  163.0528 C.3     1  UNL1        0.0897
@<TRIPOS>BOND
     1    20    21    1
     2    21     1    1
     3     1     2   ar
     4     2     3   ar
     5     3    23    1
     6    23    25    1
     7    25    26    1
     8    26    27    1
     9    27    28    1
    10    28    29    1
    11    28    30    1
    12     3     4   ar
    13     4     5   ar
    14     5     6   ar
    15     6    10    1
    16    10    11   ar
    17    11    12   ar
    18    12    13   ar
    19    13    16    1
    20    16    17    1
    21    16    18    1
    22    16    19    1
    23    13    14   ar
    24    14    15   ar
    25     6     7   ar
    26     7     8   ar
    27     8     9   ar
    28     9     1   ar
    29     8     4   ar
    30    15    10   ar
    31    21    22    1
    32    23    24    1
@<TRIPOS>MOLECULE
*****
 30 32 0 0 0
SMALL
GASTEIGER

@<TRIPOS>ATOM
      1 C         141.3618  144.8242  159.9628 C.ar    1  UNL1        0.2181
      2 N         139.9929  144.2111  159.9635 N.ar    1  UNL1       -0.1986
      3 C         139.4721  143.5402  161.2000 C.ar    1  UNL1        0.1388
      4 C         140.3204  143.4826  162.4357 C.ar    1  UNL1        0.0786
      5 S         140.0771  142.8931  163.7934 S.2     1  UNL1       -0.0826
      6 C         141.2958  143.1420  164.6318 C.ar    1  UNL1        0.0311
      7 C         142.2922  143.8852  163.7923 C.ar    1  UNL1        0.0263
      8 C         141.6893  144.0957  162.4350 C.ar    1  UNL1        0.0933
      9 N         142.2100  144.7665  161.1986 N.ar    1  UNL1       -0.2132
     10 C         141.4849  142.7215  166.0592 C.ar    1  UNL1        0.0060
     11 C         140.3360  142.7940  167.0209 C.ar    1  UNL1        0.0004
     12 C         140.5252  142.3734  168.4483 C.ar    1  UNL1        0.0039
     13 C         141.8631  141.8803  168.9140 C.ar    1  UNL1        0.0714
     14 C         143.0120  141.8078  167.9523 C.ar    1  UNL1        0.0039
     15 C         142.8228  142.2284  166.5249 C.ar    1  UNL1        0.0004
     16 C         142.0522  141.4598  170.3414 C.3     1  UNL1        0.4186
     17 F         142.2413  141.0392  171.7686 F       1  UNL1       -0.1659
     18 F         140.6051  141.7429  170.6165 F       1  UNL1       -0.1659
     19 F         143.4994  141.1766  170.0661 F       1  UNL1       -0.1659
     20 C         140.9320  145.9196  157.6465 C.3     1  UNL1        0.1108
     21 N         141.8826  145.4950  158.7263 N.pl3   1  UNL1       -0.3013
     22 H         142.8483  145.6566  158.6235 H       1  UNL1        0.1497
     23 N         138.1031  142.9271  161.2006 N.pl3   1  UNL1       -0.3176
     24 H         137.3062  143.5022  161.2600 H       1  UNL1        0.1482
     25 C         137.9483  141.4379  161.1106 C.3     1  UNL1        0.0896
     26 C         137.5128  140.6551  162.3139 C.3     1  UNL1        0.0385
     27 C         138.1368  139.3233  162.6083 C.3     1  UNL1        0.0739
     28 N         138.6079  139.0061  163.9966 N.3     1  UNL1       -0.2703
     29 C         138.2569  139.9183  165.1344 C.3     1  UNL1        0.0897
     30 C         139.4300  137.7767  164.2471 C.3     1  UNL1        0.0897
@<TRIPOS>BOND
     1    20    21    1
     2    21     1    1
     3     1     2   ar
     4     2     3   ar
     5     3    23    1
     6    23    25    1
     7    25    26    1
     8    26    27    1
     9    27    28    1
    10    28    29    1
    11    28    30    1
    12     3     4   ar
    13     4     5   ar
    14     5     6   ar
    15     6    10    1
    16    10    11   ar
    17    11    12   ar
    18    12    13   ar
    19    13    16    1
    20    16    17    1
    21    16    18    1
    22    16    19    1
    23    13    14   ar
    24    14    15   ar
    25     6     7   ar
    26     7     8   ar
    27     8     9   ar
    28     9     1   ar
    29     8     4   ar
    30    15    10   ar
    31    21    22    1
    32    23    24    1
@<TRIPOS>MOLECULE
*****
 30 32 0 0 0
SMALL
GASTEIGER

@<TRIPOS>ATOM
      1 C         144.0753  142.3334  160.1288 C.ar    1  UNL1        0.2181
      2 N         143.3832  143.6545  160.2879 N.ar    1  UNL1       -0.1986
      3 C         142.6158  143.9530  161.5418 C.ar    1  UNL1        0.1388
      4 C         142.5406  142.9302  162.6364 C.ar    1  UNL1        0.0786
      5 S         141.8641  142.9408  163.9751 S.2     1  UNL1       -0.0826
      6 C         142.1382  141.6261  164.6433 C.ar    1  UNL1        0.0311
      7 C         142.9841  140.8030  163.7176 C.ar    1  UNL1        0.0263
      8 C         143.2328  141.6090  162.4773 C.ar    1  UNL1        0.0933
      9 N         144.0002  141.3106  161.2234 N.ar    1  UNL1       -0.2132
     10 C         141.6517  141.2079  165.9993 C.ar    1  UNL1        0.0060
     11 C         140.3146  140.5438  166.1444 C.ar    1  UNL1        0.0004
     12 C         139.8283  140.1256  167.5004 C.ar    1  UNL1        0.0039
     13 C         140.6789  140.3715  168.7112 C.ar    1  UNL1        0.0714
     14 C         142.0160  141.0357  168.5660 C.ar    1  UNL1        0.0039
     15 C         142.5024  141.4539  167.2100 C.ar    1  UNL1        0.0004
     16 C         140.1925  139.9533  170.0671 C.3     1  UNL1        0.4186
     17 F         139.7061  139.5351  171.4229 F       1  UNL1       -0.1659
     18 F         141.4066  139.0887  170.2359 F       1  UNL1       -0.1659
     19 F         138.9784  140.8179  169.8981 F       1  UNL1       -0.1659
     20 C         144.2367  141.1648  157.8139 C.3     1  UNL1        0.1108
     21 N         144.8427  142.0349  158.8749 N.pl3   1  UNL1       -0.3013
     22 H         145.7441  142.4100  158.7484 H       1  UNL1        0.1497
     23 N         141.9236  145.2742  161.7009 N.pl3   1  UNL1       -0.3176
     24 H         142.4279  146.0596  162.0142 H       1  UNL1        0.1482
     25 C         140.4631  145.3989  161.3826 C.3     1  UNL1        0.0896
     26 C         139.4724  145.6301  162.4849 C.3     1  UNL1        0.0385
     27 C         138.4175  144.6034  162.7728 C.3     1  UNL1        0.0739
     28 N         138.2857  144.0299  164.1526 N.3     1  UNL1       -0.2703
     29 C         138.6450  144.8616  165.3480 C.3     1  UNL1        0.0897
     30 C         137.7945  142.6246  164.3368 C.3     1  UNL1        0.0897
@<TRIPOS>BOND
     1    20    21    1
     2    21     1    1
     3     1     2   ar
     4     2     3   ar
     5     3    23    1
     6    23    25    1
     7    25    26    1
     8    26    27    1
     9    27    28    1
    10    28    29    1
    11    28    30    1
    12     3     4   ar
    13     4     5   ar
    14     5     6   ar
    15     6    10    1
    16    10    11   ar
    17    11    12   ar
    18    12    13   ar
    19    13    16    1
    20    16    17    1
    21    16    18    1
    22    16    19    1
    23    13    14   ar
    24    14    15   ar
    25     6     7   ar
    26     7     8   ar
    27     8     9   ar
    28     9     1   ar
    29     8     4   ar
    30    15    10   ar
    31    21    22    1
    32    23    24    1
@<TRIPOS>MOLECULE
*****
 30 32 0 0 0
SMALL
GASTEIGER

@<TRIPOS>ATOM
      1 C         140.2833  144.8235  160.3201 C.ar    1  UNL1        0.2181
      2 N         141.1371  143.6588  159.9147 N.ar    1  UNL1       -0.1986
      3 C         141.4484  142.5762  160.9054 C.ar    1  UNL1        0.1388
      4 C         140.9060  142.6586  162.3014 C.ar    1  UNL1        0.0786
      5 S         141.0429  141.7495  163.4867 S.2     1  UNL1       -0.0826
      6 C         140.2738  142.3525  164.6246 C.ar    1  UNL1        0.0311
      7 C         139.6615  143.6342  164.1426 C.ar    1  UNL1        0.0263
      8 C         140.0522  143.8234  162.7068 C.ar    1  UNL1        0.0933
      9 N         139.7409  144.9058  161.7162 N.ar    1  UNL1       -0.2132
     10 C         140.1403  141.7751  166.0026 C.ar    1  UNL1        0.0060
     11 C         139.4268  140.4711  166.2035 C.ar    1  UNL1        0.0004
     12 C         139.2934  139.8937  167.5815 C.ar    1  UNL1        0.0039
     13 C         139.8735  140.6203  168.7586 C.ar    1  UNL1        0.0714
     14 C         140.5871  141.9243  168.5576 C.ar    1  UNL1        0.0039
     15 C         140.7205  142.5017  167.1796 C.ar    1  UNL1        0.0004
     16 C         139.7401  140.0429  170.1366 C.3     1  UNL1        0.4186
     17 F         139.6066  139.4656  171.5145 F       1  UNL1       -0.1659
     18 F         141.2297  139.8851  170.2147 F       1  UNL1       -0.1659
     19 F         138.2504  140.2008  170.0583 F       1  UNL1       -0.1659
     20 C         140.3410  145.7305  157.8862 C.3     1  UNL1        0.1108
     21 N         139.9719  145.9060  159.3295 N.pl3   1  UNL1       -0.3013
     22 H         139.5253  146.7315  159.6265 H       1  UNL1        0.1497
     23 N         142.3023  141.4115  160.4999 N.pl3   1  UNL1       -0.3176
     24 H         141.8902  140.6208  160.0826 H       1  UNL1        0.1482
     25 C         143.7839  141.4515  160.7304 C.3     1  UNL1        0.0896
     26 C         144.4159  142.6693  161.3366 C.3     1  UNL1        0.0385
     27 C         144.8386  142.6573  162.7758 C.3     1  UNL1        0.0739
     28 N         144.2334  143.6307  163.7434 N.3     1  UNL1       -0.2703
     29 C         143.6808  144.9345  163.2488 C.3     1  UNL1        0.0897
     30 C         144.1810  143.3003  165.2056 C.3     1  UNL1        0.0897
@<TRIPOS>BOND
     1    20    21    1
     2    21     1    1
     3     1     2   ar
     4     2     3   ar
     5     3    23    1
     6    23    25    1
     7    25    26    1
     8    26    27    1
     9    27    28    1
    10    28    29    1
    11    28    30    1
    12     3     4   ar
    13     4     5   ar
    14     5     6   ar
    15     6    10    1
    16    10    11   ar
    17    11    12   ar
    18    12    13   ar
    19    13    16    1
    20    16    17    1
    21    16    18    1
    22    16    19    1
    23    13    14   ar
    24    14    15   ar
    25     6     7   ar
    26     7     8   ar
    27     8     9   ar
    28     9     1   ar
    29     8     4   ar
    30    15    10   ar
    31    21    22    1
    32    23    24    1
@<TRIPOS>MOLECULE
*****
 30 32 0 0 0
SMALL
GASTEIGER

@<TRIPOS>ATOM
      1 C         137.7960  140.7661  158.8569 C.ar    1  UNL1        0.2181
      2 N         138.3215  142.1654  158.9810 N.ar    1  UNL1       -0.1986
      3 C         138.7693  142.6828  160.3159 C.ar    1  UNL1        0.1388
      4 C         138.6916  141.8007  161.5266 C.ar    1  UNL1        0.0786
      5 S         139.0572  142.0329  162.9627 S.2     1  UNL1       -0.0826
      6 C         138.7577  140.7769  163.7261 C.ar    1  UNL1        0.0311
      7 C         138.2069  139.7685  162.7618 C.ar    1  UNL1        0.0263
      8 C         138.1661  140.4013  161.4024 C.ar    1  UNL1        0.0933
      9 N         137.7183  139.8839  160.0676 N.ar    1  UNL1       -0.2132
     10 C         138.9713  140.5663  165.1958 C.ar    1  UNL1        0.0060
     11 C         138.2542  139.4570  165.9065 C.ar    1  UNL1        0.0004
     12 C         138.4679  139.2464  167.3763 C.ar    1  UNL1        0.0039
     13 C         139.3987  140.1451  168.1352 C.ar    1  UNL1        0.0714
     14 C         140.1158  141.2544  167.4245 C.ar    1  UNL1        0.0039
     15 C         139.9021  141.4649  165.9547 C.ar    1  UNL1        0.0004
     16 C         139.6124  139.9344  169.6049 C.3     1  UNL1        0.4186
     17 F         139.8260  139.7238  171.0745 F       1  UNL1       -0.1659
     18 F         138.1584  140.2054  169.8551 F       1  UNL1       -0.1659
     19 F         141.0663  139.6634  169.3546 F       1  UNL1       -0.1659
     20 C         137.8739  140.8702  156.2621 C.3     1  UNL1        0.1108
     21 N         137.3482  140.2487  157.5220 N.pl3   1  UNL1       -0.3013
     22 H         136.7093  139.5012  157.4728 H       1  UNL1        0.1497
     23 N         139.2948  144.0823  160.4400 N.pl3   1  UNL1       -0.3176
     24 H         138.7144  144.7969  160.7889 H       1  UNL1        0.1482
     25 C         140.7046  144.3930  160.0325 C.3     1  UNL1        0.0896
     26 C         141.8531  143.8226  160.8107 C.3     1  UNL1        0.0385
     27 C         142.2665  144.4523  162.1078 C.3     1  UNL1        0.0739
     28 N         143.1935  143.7224  163.0342 N.3     1  UNL1       -0.2703
     29 C         144.5944  143.4088  162.5997 C.3     1  UNL1        0.0897
     30 C         142.7193  143.3062  164.3950 C.3     1  UNL1        0.0897
@<TRIPOS>BOND
     1    20    21    1
     2    21     1    1
     3     1     2   ar
     4     2     3   ar
     5     3    23    1
     6    23    25    1
     7    25    26    1
     8    26    27    1
     9    27    28    1
    10    28    29    1
    11    28    30    1
    12     3     4   ar
    13     4     5   ar
    14     5     6   ar
    15     6    10    1
    16    10    11   ar
    17    11    12   ar
    18    12    13   ar
    19    13    16    1
    20    16    17    1
    21    16    18    1
    22    16    19    1
    23    13    14   ar
    24    14    15   ar
    25     6     7   ar
    26     7     8   ar
    27     8     9   ar
    28     9     1   ar
    29     8     4   ar
    30    15    10   ar
    31    21    22    1
    32    23    24    1
@<TRIPOS>MOLECULE
*****
 30 32 0 0 0
SMALL
GASTEIGER

@<TRIPOS>ATOM
      1 C         143.0130  143.5120  159.3581 C.ar    1  UNL1        0.2181
      2 N         143.5037  142.0949  159.3848 N.ar    1  UNL1       -0.1986
      3 C         143.5240  141.3324  160.6765 C.ar    1  UNL1        0.1388
      4 C         143.0534  141.9871  161.9413 C.ar    1  UNL1        0.0786
      5 S         142.9578  141.4901  163.3533 S.2     1  UNL1       -0.0826
      6 C         142.4080  142.6001  164.1992 C.ar    1  UNL1        0.0311
      7 C         142.1638  143.7832  163.3100 C.ar    1  UNL1        0.0263
      8 C         142.5627  143.4043  161.9146 C.ar    1  UNL1        0.0933
      9 N         142.5424  144.1668  160.6229 N.ar    1  UNL1       -0.2132
     10 C         142.1480  142.5379  165.6752 C.ar    1  UNL1        0.0060
     11 C         140.7614  142.7598  166.2025 C.ar    1  UNL1        0.0004
     12 C         140.5015  142.6977  167.6786 C.ar    1  UNL1        0.0039
     13 C         141.6281  142.4136  168.6273 C.ar    1  UNL1        0.0714
     14 C         143.0147  142.1917  168.1000 C.ar    1  UNL1        0.0039
     15 C         143.2746  142.2539  166.6239 C.ar    1  UNL1        0.0004
     16 C         141.3681  142.3515  170.1033 C.3     1  UNL1        0.4186
     17 F         141.1082  142.2894  171.5792 F       1  UNL1       -0.1659
     18 F         141.6443  140.8772  170.0898 F       1  UNL1       -0.1659
     19 F         141.0920  143.8258  170.1166 F       1  UNL1       -0.1659
     20 C         142.6927  143.5632  156.7804 C.3     1  UNL1        0.1108
     21 N         142.9927  144.2745  158.0664 N.pl3   1  UNL1       -0.3013
     22 H         143.1764  145.2417  158.0628 H       1  UNL1        0.1497
     23 N         144.0148  139.9151  160.7032 N.pl3   1  UNL1       -0.3176
     24 H         144.9387  139.7193  160.9812 H       1  UNL1        0.1482
     25 C         143.0979  138.7963  160.3063 C.3     1  UNL1        0.0896
     26 C         142.3871  137.9996  161.3599 C.3     1  UNL1        0.0385
     27 C         140.9195  138.2047  161.5926 C.3     1  UNL1        0.0739
     28 N         140.2750  137.6676  162.8361 N.3     1  UNL1       -0.2703
     29 C         138.7810  137.6742  162.9693 C.3     1  UNL1        0.0897
     30 C         141.1247  137.1238  163.9463 C.3     1  UNL1        0.0897
@<TRIPOS>BOND
     1    20    21    1
     2    21     1    1
     3     1     2   ar
     4     2     3   ar
     5     3    23    1
     6    23    25    1
     7    25    26    1
     8    26    27    1
     9    27    28    1
    10    28    29    1
    11    28    30    1
    12     3     4   ar
    13     4     5   ar
    14     5     6   ar
    15     6    10    1
    16    10    11   ar
    17    11    12   ar
    18    12    13   ar
    19    13    16    1
    20    16    17    1
    21    16    18    1
    22    16    19    1
    23    13    14   ar
    24    14    15   ar
    25     6     7   ar
    26     7     8   ar
    27     8     9   ar
    28     9     1   ar
    29     8     4   ar
    30    15    10   ar
    31    21    22    1
    32    23    24    1
@<TRIPOS>MOLECULE
*****
 30 32 0 0 0
SMALL
GASTEIGER

@<TRIPOS>ATOM
      1 C         143.9411  140.6130  159.2248 C.ar    1  UNL1        0.2181
      2 N         143.4658  142.0353  159.2533 N.ar    1  UNL1       -0.1986
      3 C         143.0862  142.6734  160.5567 C.ar    1  UNL1        0.1388
      4 C         143.1819  141.8889  161.8316 C.ar    1  UNL1        0.0786
      5 S         142.8791  142.2481  163.2562 S.2     1  UNL1       -0.0826
      6 C         143.1674  141.0476  164.1081 C.ar    1  UNL1        0.0311
      7 C         143.6482  139.9465  163.2101 C.ar    1  UNL1        0.0263
      8 C         143.6572  140.4665  161.8031 C.ar    1  UNL1        0.0933
      9 N         144.0368  139.8285  160.4997 N.ar    1  UNL1       -0.2132
     10 C         143.0035  140.9630  165.5967 C.ar    1  UNL1        0.0060
     11 C         143.1474  142.1962  166.4384 C.ar    1  UNL1        0.0004
     12 C         142.9835  142.1115  167.9270 C.ar    1  UNL1        0.0039
     13 C         142.6757  140.7937  168.5740 C.ar    1  UNL1        0.0714
     14 C         142.5318  139.5605  167.7323 C.ar    1  UNL1        0.0039
     15 C         142.6957  139.6452  166.2437 C.ar    1  UNL1        0.0004
     16 C         142.5118  140.7091  170.0626 C.3     1  UNL1        0.4186
     17 F         142.3480  140.6245  171.5512 F       1  UNL1       -0.1659
     18 F         142.1547  142.1653  170.1061 F       1  UNL1       -0.1659
     19 F         142.8689  139.2528  170.0191 F       1  UNL1       -0.1659
     20 C         143.2638  139.3652  157.0490 C.3     1  UNL1        0.1108
     21 N         144.3207  139.9750  157.9213 N.pl3   1  UNL1       -0.3013
     22 H         145.2635  139.9564  157.6385 H       1  UNL1        0.1497
     23 N         142.6108  144.0958  160.5851 N.pl3   1  UNL1       -0.3176
     24 H         142.9822  144.7259  161.2443 H       1  UNL1        0.1482
     25 C         141.5698  144.5584  159.6093 C.3     1  UNL1        0.0896
     26 C         140.1410  144.1348  159.7801 C.3     1  UNL1        0.0385
     27 C         139.6285  143.7551  161.1377 C.3     1  UNL1        0.0739
     28 N         139.0351  144.8007  162.0349 N.3     1  UNL1       -0.2703
     29 C         137.9233  144.4394  162.9746 C.3     1  UNL1        0.0897
     30 C         139.5538  146.2075  161.9922 C.3     1  UNL1        0.0897
@<TRIPOS>BOND
     1    20    21    1
     2    21     1    1
     3     1     2   ar
     4     2     3   ar
     5     3    23    1
     6    23    25    1
     7    25    26    1
     8    26    27    1
     9    27    28    1
    10    28    29    1
    11    28    30    1
    12     3     4   ar
    13     4     5   ar
    14     5     6   ar
    15     6    10    1
    16    10    11   ar
    17    11    12   ar
    18    12    13   ar
    19    13    16    1
    20    16    17    1
    21    16    18    1
    22    16    19    1
    23    13    14   ar
    24    14    15   ar
    25     6     7   ar
    26     7     8   ar
    27     8     9   ar
    28     9     1   ar
    29     8     4   ar
    30    15    10   ar
    31    21    22    1
    32    23    24    1
@<TRIPOS>MOLECULE
*****
 30 32 0 0 0
SMALL
GASTEIGER

@<TRIPOS>ATOM
      1 C         139.9838  140.6474  169.0691 C.ar    1  UNL1        0.2181
      2 N         139.1642  139.6057  168.3670 N.ar    1  UNL1       -0.1986
      3 C         138.9459  139.6959  166.8856 C.ar    1  UNL1        0.1388
      4 C         139.5474  140.8278  166.1066 C.ar    1  UNL1        0.0786
      5 S         139.5045  141.1770  164.6484 S.2     1  UNL1       -0.0826
      6 C         140.2977  142.4345  164.4494 C.ar    1  UNL1        0.0311
      7 C         140.8307  142.8625  165.7846 C.ar    1  UNL1        0.0263
      8 C         140.3670  141.8695  166.8088 C.ar    1  UNL1        0.0933
      9 N         140.5852  141.7793  168.2900 N.ar    1  UNL1       -0.2132
     10 C         140.5189  143.1401  163.1444 C.ar    1  UNL1        0.0060
     11 C         139.4160  143.2037  162.1297 C.ar    1  UNL1        0.0004
     12 C         139.6374  143.9093  160.8246 C.ar    1  UNL1        0.0039
     13 C         140.9616  144.5514  160.5343 C.ar    1  UNL1        0.0714
     14 C         142.0645  144.4878  161.5489 C.ar    1  UNL1        0.0039
     15 C         141.8431  143.7821  162.8540 C.ar    1  UNL1        0.0004
     16 C         141.1828  145.2570  159.2292 C.3     1  UNL1        0.4186
     17 F         141.4041  145.9626  157.9242 F       1  UNL1       -0.1659
     18 F         139.9165  146.0342  159.4347 F       1  UNL1       -0.1659
     19 F         142.4492  144.4797  159.0238 F       1  UNL1       -0.1659
     20 C         141.5416  140.8976  171.1332 C.3     1  UNL1        0.1108
     21 N         140.2020  140.5572  170.5505 N.pl3   1  UNL1       -0.3013
     22 H         139.4661  140.2745  171.1402 H       1  UNL1        0.1497
     23 N         138.1263  138.6541  166.1835 N.pl3   1  UNL1       -0.3176
     24 H         137.1437  138.7155  166.1879 H       1  UNL1        0.1482
     25 C         138.8037  137.5190  165.4747 C.3     1  UNL1        0.0896
     26 C         138.9583  137.5517  163.9831 C.3     1  UNL1        0.0385
     27 C         140.3272  137.5280  163.3702 C.3     1  UNL1        0.0739
     28 N         140.4973  137.7946  161.9039 N.3     1  UNL1       -0.2703
     29 C         139.2953  138.0491  161.0435 C.3     1  UNL1        0.0897
     30 C         141.8694  137.8067  161.2981 C.3     1  UNL1        0.0897
@<TRIPOS>BOND
     1    20    21    1
     2    21     1    1
     3     1     2   ar
     4     2     3   ar
     5     3    23    1
     6    23    25    1
     7    25    26    1
     8    26    27    1
     9    27    28    1
    10    28    29    1
    11    28    30    1
    12     3     4   ar
    13     4     5   ar
    14     5     6   ar
    15     6    10    1
    16    10    11   ar
    17    11    12   ar
    18    12    13   ar
    19    13    16    1
    20    16    17    1
    21    16    18    1
    22    16    19    1
    23    13    14   ar
    24    14    15   ar
    25     6     7   ar
    26     7     8   ar
    27     8     9   ar
    28     9     1   ar
    29     8     4   ar
    30    15    10   ar
    31    21    22    1
    32    23    24    1
