@<TRIPOS>MOLECULE
*****
 23 25 0 0 0
SMALL
GASTEIGER

@<TRIPOS>ATOM
      1 C         139.8155  139.0777  165.4193 C.ar    1  UNL1        0.0839
      2 C         140.2836  137.7534  164.8929 C.ar    1  UNL1        0.0192
      3 C         139.8615  137.2973  163.5278 C.ar    1  UNL1        0.0028
      4 C         138.9713  138.1656  162.6889 C.ar    1  UNL1        0.0161
      5 C         138.5032  139.4899  163.2152 C.ar    1  UNL1        0.0749
      6 N         138.9254  139.9460  164.5805 N.ar    1  UNL1       -0.2482
      7 C         141.6928  139.7244  167.0950 C.ar    1  UNL1        0.1423
      8 C         142.1149  140.1804  168.4602 C.ar    1  UNL1        0.0665
      9 C         141.0819  140.4459  169.5150 C.ar    1  UNL1        0.1432
     10 F         141.5041  140.9020  170.8802 F       1  UNL1       -0.2041
     11 C         139.6269  140.2553  169.2045 C.ar    1  UNL1        0.0299
     12 C         139.2048  139.7993  167.8393 C.ar    1  UNL1        0.0068
     13 C         140.2377  139.5338  166.7846 C.ar    1  UNL1        0.0517
     14 C         143.6825  138.3146  166.1986 C.3     1  UNL1        0.2525
     15 O         142.7257  139.4589  166.0402 O.3     1  UNL1       -0.4713
     16 C         137.6130  140.3582  162.3764 C.3     1  UNL1        0.1151
     17 N         136.8790  141.5065  163.0029 N.3     1  UNL1       -0.2935
     18 H         136.4881  141.1627  163.8800 H       1  UNL1        0.1236
     19 C         137.6082  142.7778  163.3227 C.3     1  UNL1        0.0543
     20 C         137.7991  143.3647  164.6898 C.3     1  UNL1        0.0157
     21 C         138.5833  144.6350  164.5436 C.3     1  UNL1        0.0014
     22 C         138.8770  144.8332  163.0859 C.3     1  UNL1        0.0014
     23 C         138.2743  143.6854  162.3314 C.3     1  UNL1        0.0157
@<TRIPOS>BOND
     1    14    15    1
     2    15     7    1
     3     7     8   ar
     4     8     9   ar
     5     9    10    1
     6     9    11   ar
     7    11    12   ar
     8    12    13   ar
     9    13     1    1
    10     1     2   ar
    11     2     3   ar
    12     3     4   ar
    13     4     5   ar
    14     5    16    1
    15    16    17    1
    16    17    19    1
    17    19    20    1
    18    20    21    1
    19    21    22    1
    20    22    23    1
    21     5     6   ar
    22    13     7   ar
    23     6     1   ar
    24    23    19    1
    25    17    18    1
@<TRIPOS>MOLECULE
*****
 23 25 0 0 0
SMALL
GASTEIGER

@<TRIPOS>ATOM
      1 C         139.8034  139.9243  166.1108 C.ar    1  UNL1        0.0839
      2 C         140.7810  138.8267  165.8115 C.ar    1  UNL1        0.0192
      3 C         140.7362  138.1229  164.4877 C.ar    1  UNL1        0.0028
      4 C         139.7138  138.5165  163.4631 C.ar    1  UNL1        0.0161
      5 C         138.7361  139.6141  163.7624 C.ar    1  UNL1        0.0749
      6 N         138.7810  140.3180  165.0863 N.ar    1  UNL1       -0.2482
      7 C         140.5231  141.9625  167.5522 C.ar    1  UNL1        0.1423
      8 C         140.5679  142.6664  168.8760 C.ar    1  UNL1        0.0665
      9 C         139.9377  142.0358  170.0823 C.ar    1  UNL1        0.1432
     10 F         139.9825  142.7397  171.4062 F       1  UNL1       -0.2041
     11 C         139.2628  140.7014  169.9649 C.ar    1  UNL1        0.0299
     12 C         139.2180  139.9976  168.6410 C.ar    1  UNL1        0.0068
     13 C         139.8482  140.6282  167.4347 C.ar    1  UNL1        0.0517
     14 C         142.6140  142.3916  166.0710 C.3     1  UNL1        0.2525
     15 O         141.1533  142.5931  166.3458 O.3     1  UNL1       -0.4713
     16 C         137.7137  140.0078  162.7379 C.3     1  UNL1        0.1151
     17 N         136.8992  141.2524  162.9311 N.3     1  UNL1       -0.2935
     18 H         136.3302  141.1055  163.7648 H       1  UNL1        0.1236
     19 C         137.5823  142.5771  163.1008 C.3     1  UNL1        0.0543
     20 C         137.6810  143.3611  164.3758 C.3     1  UNL1        0.0157
     21 C         138.4463  144.6188  164.0885 C.3     1  UNL1        0.0014
     22 C         138.8205  144.6120  162.6359 C.3     1  UNL1        0.0014
     23 C         138.2865  143.3502  162.0255 C.3     1  UNL1        0.0157
@<TRIPOS>BOND
     1    14    15    1
     2    15     7    1
     3     7     8   ar
     4     8     9   ar
     5     9    10    1
     6     9    11   ar
     7    11    12   ar
     8    12    13   ar
     9    13     1    1
    10     1     2   ar
    11     2     3   ar
    12     3     4   ar
    13     4     5   ar
    14     5    16    1
    15    16    17    1
    16    17    19    1
    17    19    20    1
    18    20    21    1
    19    21    22    1
    20    22    23    1
    21     5     6   ar
    22    13     7   ar
    23     6     1   ar
    24    23    19    1
    25    17    18    1
@<TRIPOS>MOLECULE
*****
 23 25 0 0 0
SMALL
GASTEIGER

@<TRIPOS>ATOM
      1 C         140.8404  141.8236  166.4880 C.ar    1  UNL1        0.0839
      2 C         140.9630  141.8811  167.9818 C.ar    1  UNL1        0.0192
      3 C         140.1522  140.9533  168.8372 C.ar    1  UNL1        0.0028
      4 C         139.2188  139.9678  168.1986 C.ar    1  UNL1        0.0161
      5 C         139.0962  139.9102  166.7047 C.ar    1  UNL1        0.0749
      6 N         139.9071  140.8382  165.8494 N.ar    1  UNL1       -0.2482
      7 C         140.9638  143.7387  164.7366 C.ar    1  UNL1        0.1423
      8 C         141.7746  144.6666  163.8813 C.ar    1  UNL1        0.0665
      9 C         143.2729  144.6074  163.9221 C.ar    1  UNL1        0.1432
     10 F         144.0837  145.5353  163.0667 F       1  UNL1       -0.2041
     11 C         143.9603  143.6202  164.8181 C.ar    1  UNL1        0.0299
     12 C         143.1495  142.6923  165.6734 C.ar    1  UNL1        0.0068
     13 C         141.6512  142.7516  165.6326 C.ar    1  UNL1        0.0517
     14 C         138.7365  144.8697  165.4508 C.3     1  UNL1        0.2525
     15 O         139.4655  143.7980  164.6959 O.3     1  UNL1       -0.4713
     16 C         138.1629  138.9248  166.0662 C.3     1  UNL1        0.1151
     17 N         138.6999  137.6486  165.4892 N.3     1  UNL1       -0.2935
     18 H         137.8968  137.0460  165.3094 H       1  UNL1        0.1236
     19 C         139.5100  137.6786  164.2271 C.3     1  UNL1        0.0543
     20 C         140.9713  137.3607  164.1097 C.3     1  UNL1        0.0157
     21 C         141.3655  137.5173  162.6709 C.3     1  UNL1        0.0014
     22 C         140.1479  137.9319  161.8991 C.3     1  UNL1        0.0014
     23 C         139.0012  138.0316  162.8609 C.3     1  UNL1        0.0157
@<TRIPOS>BOND
     1    14    15    1
     2    15     7    1
     3     7     8   ar
     4     8     9   ar
     5     9    10    1
     6     9    11   ar
     7    11    12   ar
     8    12    13   ar
     9    13     1    1
    10     1     2   ar
    11     2     3   ar
    12     3     4   ar
    13     4     5   ar
    14     5    16    1
    15    16    17    1
    16    17    19    1
    17    19    20    1
    18    20    21    1
    19    21    22    1
    20    22    23    1
    21     5     6   ar
    22    13     7   ar
    23     6     1   ar
    24    23    19    1
    25    17    18    1
@<TRIPOS>MOLECULE
*****
 23 25 0 0 0
SMALL
GASTEIGER

@<TRIPOS>ATOM
      1 C         140.7026  142.8478  165.9084 C.ar    1  UNL1        0.0839
      2 C         142.1085  142.8518  165.3856 C.ar    1  UNL1        0.0192
      3 C         142.4401  143.6049  164.1315 C.ar    1  UNL1        0.0028
      4 C         141.3658  144.3539  163.4001 C.ar    1  UNL1        0.0161
      5 C         139.9599  144.3499  163.9229 C.ar    1  UNL1        0.0749
      6 N         139.6283  143.5968  165.1771 N.ar    1  UNL1       -0.2482
      7 C         139.7619  140.7266  167.0771 C.ar    1  UNL1        0.1423
      8 C         139.4303  139.9736  168.3313 C.ar    1  UNL1        0.0665
      9 C         139.7078  140.5886  169.6710 C.ar    1  UNL1        0.1432
     10 F         139.3762  139.8355  170.9252 F       1  UNL1       -0.2041
     11 C         140.3168  141.9567  169.7565 C.ar    1  UNL1        0.0299
     12 C         140.6484  142.7097  168.5023 C.ar    1  UNL1        0.0068
     13 C         140.3709  142.0947  167.1626 C.ar    1  UNL1        0.0517
     14 C         138.4285  139.0550  165.6015 C.3     1  UNL1        0.2525
     15 O         139.4845  140.1115  165.7375 O.3     1  UNL1       -0.4713
     16 C         138.8856  145.0989  163.1916 C.3     1  UNL1        0.1151
     17 N         137.6851  144.3677  162.6680 N.3     1  UNL1       -0.2935
     18 H         137.3482  144.8942  161.8620 H       1  UNL1        0.1236
     19 C         137.8095  142.9383  162.2304 C.3     1  UNL1        0.0543
     20 C         138.3648  142.4623  160.9208 C.3     1  UNL1        0.0157
     21 C         138.2989  140.9638  160.9066 C.3     1  UNL1        0.0014
     22 C         137.7027  140.5137  162.2074 C.3     1  UNL1        0.0014
     23 C         137.4003  141.7340  163.0255 C.3     1  UNL1        0.0157
@<TRIPOS>BOND
     1    14    15    1
     2    15     7    1
     3     7     8   ar
     4     8     9   ar
     5     9    10    1
     6     9    11   ar
     7    11    12   ar
     8    12    13   ar
     9    13     1    1
    10     1     2   ar
    11     2     3   ar
    12     3     4   ar
    13     4     5   ar
    14     5    16    1
    15    16    17    1
    16    17    19    1
    17    19    20    1
    18    20    21    1
    19    21    22    1
    20    22    23    1
    21     5     6   ar
    22    13     7   ar
    23     6     1   ar
    24    23    19    1
    25    17    18    1
@<TRIPOS>MOLECULE
*****
 23 25 0 0 0
SMALL
GASTEIGER

@<TRIPOS>ATOM
      1 C         140.1944  138.9574  165.1422 C.ar    1  UNL1        0.0839
      2 C         140.9276  137.7562  164.6230 C.ar    1  UNL1        0.0192
      3 C         140.6902  137.2812  163.2201 C.ar    1  UNL1        0.0028
      4 C         139.7197  138.0074  162.3365 C.ar    1  UNL1        0.0161
      5 C         138.9865  139.2086  162.8558 C.ar    1  UNL1        0.0749
      6 N         139.2239  139.6836  164.2587 N.ar    1  UNL1       -0.2482
      7 C         139.2750  139.6064  167.4839 C.ar    1  UNL1        0.1423
      8 C         139.5124  140.0814  168.8868 C.ar    1  UNL1        0.0665
      9 C         140.9067  140.3822  169.3508 C.ar    1  UNL1        0.1432
     10 F         141.1441  140.8572  170.7538 F       1  UNL1       -0.2041
     11 C         142.0636  140.2082  168.4121 C.ar    1  UNL1        0.0299
     12 C         141.8261  139.7332  167.0093 C.ar    1  UNL1        0.0068
     13 C         140.4318  139.4323  166.5452 C.ar    1  UNL1        0.0517
     14 C         137.3042  137.9348  167.2164 C.3     1  UNL1        0.2525
     15 O         137.8806  139.3056  167.0198 O.3     1  UNL1       -0.4713
     16 C         138.0160  139.9348  161.9722 C.3     1  UNL1        0.1151
     17 N         137.0456  140.9114  162.5676 N.3     1  UNL1       -0.2935
     18 H         136.6437  140.4625  163.3907 H       1  UNL1        0.1236
     19 C         137.5173  142.2678  163.0011 C.3     1  UNL1        0.0543
     20 C         138.0139  143.3585  162.0989 C.3     1  UNL1        0.0157
     21 C         138.3787  144.5363  162.9530 C.3     1  UNL1        0.0014
     22 C         138.1077  144.1736  164.3830 C.3     1  UNL1        0.0014
     23 C         137.5753  142.7716  164.4127 C.3     1  UNL1        0.0157
@<TRIPOS>BOND
     1    14    15    1
     2    15     7    1
     3     7     8   ar
     4     8     9   ar
     5     9    10    1
     6     9    11   ar
     7    11    12   ar
     8    12    13   ar
     9    13     1    1
    10     1     2   ar
    11     2     3   ar
    12     3     4   ar
    13     4     5   ar
    14     5    16    1
    15    16    17    1
    16    17    19    1
    17    19    20    1
    18    20    21    1
    19    21    22    1
    20    22    23    1
    21     5     6   ar
    22    13     7   ar
    23     6     1   ar
    24    23    19    1
    25    17    18    1
@<TRIPOS>MOLECULE
*****
 23 25 0 0 0
SMALL
GASTEIGER

@<TRIPOS>ATOM
      1 C         139.6732  141.2774  166.2293 C.ar    1  UNL1        0.0839
      2 C         138.7322  140.4549  165.3999 C.ar    1  UNL1        0.0192
      3 C         137.9041  141.1092  164.3341 C.ar    1  UNL1        0.0028
      4 C         138.0169  142.5862  164.0977 C.ar    1  UNL1        0.0161
      5 C         138.9579  143.4088  164.9271 C.ar    1  UNL1        0.0749
      6 N         139.7860  142.7543  165.9929 N.ar    1  UNL1       -0.2482
      7 C         141.8720  140.1079  166.9695 C.ar    1  UNL1        0.1423
      8 C         142.7000  139.4535  168.0353 C.ar    1  UNL1        0.0665
      9 C         142.1575  139.3142  169.4268 C.ar    1  UNL1        0.1432
     10 F         142.9857  138.6597  170.4926 F       1  UNL1       -0.2041
     11 C         140.7869  139.8292  169.7524 C.ar    1  UNL1        0.0299
     12 C         139.9588  140.4836  168.6866 C.ar    1  UNL1        0.0068
     13 C         140.5014  140.6230  167.2951 C.ar    1  UNL1        0.0517
     14 C         143.2930  141.4119  165.2286 C.3     1  UNL1        0.2525
     15 O         142.4145  140.2473  165.5780 O.3     1  UNL1       -0.4713
     16 C         139.0707  144.8857  164.6907 C.3     1  UNL1        0.1151
     17 N         139.7990  145.3986  163.4839 N.3     1  UNL1       -0.2935
     18 H         139.8618  146.4115  163.5863 H       1  UNL1        0.1236
     19 C         141.1831  144.9076  163.1783 C.3     1  UNL1        0.0543
     20 C         142.4456  145.3509  163.8563 C.3     1  UNL1        0.0157
     21 C         143.5905  144.6045  163.2382 C.3     1  UNL1        0.0014
     22 C         143.0355  143.6998  162.1781 C.3     1  UNL1        0.0014
     23 C         141.5477  143.8871  162.1412 C.3     1  UNL1        0.0157
@<TRIPOS>BOND
     1    14    15    1
     2    15     7    1
     3     7     8   ar
     4     8     9   ar
     5     9    10    1
     6     9    11   ar
     7    11    12   ar
     8    12    13   ar
     9    13     1    1
    10     1     2   ar
    11     2     3   ar
    12     3     4   ar
    13     4     5   ar
    14     5    16    1
    15    16    17    1
    16    17    19    1
    17    19    20    1
    18    20    21    1
    19    21    22    1
    20    22    23    1
    21     5     6   ar
    22    13     7   ar
    23     6     1   ar
    24    23    19    1
    25    17    18    1
@<TRIPOS>MOLECULE
*****
 23 25 0 0 0
SMALL
GASTEIGER

@<TRIPOS>ATOM
      1 C         140.8181  139.4735  165.0016 C.ar    1  UNL1        0.0839
      2 C         141.1844  138.0436  164.7345 C.ar    1  UNL1        0.0192
      3 C         140.4391  137.2600  163.6951 C.ar    1  UNL1        0.0028
      4 C         139.3274  137.9063  162.9227 C.ar    1  UNL1        0.0161
      5 C         138.9611  139.3361  163.1898 C.ar    1  UNL1        0.0749
      6 N         139.7065  140.1197  164.2293 N.ar    1  UNL1       -0.2482
      7 C         142.3466  141.4735  165.6449 C.ar    1  UNL1        0.1423
      8 C         143.0919  142.2570  166.6844 C.ar    1  UNL1        0.0665
      9 C         143.0541  141.8241  168.1200 C.ar    1  UNL1        0.1432
     10 F         143.7995  142.6077  169.1595 F       1  UNL1       -0.2041
     11 C         142.2710  140.6076  168.5162 C.ar    1  UNL1        0.0299
     12 C         141.5257  139.8241  167.4768 C.ar    1  UNL1        0.0068
     13 C         141.5635  140.2570  166.0411 C.ar    1  UNL1        0.0517
     14 C         141.8542  143.2539  163.8180 C.3     1  UNL1        0.2525
     15 O         142.3844  141.9064  164.2092 O.3     1  UNL1       -0.4713
     16 C         137.8494  139.9824  162.4174 C.3     1  UNL1        0.1151
     17 N         137.0048  141.0410  163.0624 N.3     1  UNL1       -0.2935
     18 H         136.7345  140.6841  163.9789 H       1  UNL1        0.1236
     19 C         137.5629  142.4161  163.2806 C.3     1  UNL1        0.0543
     20 C         138.0140  143.3647  162.2097 C.3     1  UNL1        0.0157
     21 C         138.4978  144.6189  162.8751 C.3     1  UNL1        0.0014
     22 C         138.3457  144.4455  164.3573 C.3     1  UNL1        0.0014
     23 C         137.7680  143.0841  164.6078 C.3     1  UNL1        0.0157
@<TRIPOS>BOND
     1    14    15    1
     2    15     7    1
     3     7     8   ar
     4     8     9   ar
     5     9    10    1
     6     9    11   ar
     7    11    12   ar
     8    12    13   ar
     9    13     1    1
    10     1     2   ar
    11     2     3   ar
    12     3     4   ar
    13     4     5   ar
    14     5    16    1
    15    16    17    1
    16    17    19    1
    17    19    20    1
    18    20    21    1
    19    21    22    1
    20    22    23    1
    21     5     6   ar
    22    13     7   ar
    23     6     1   ar
    24    23    19    1
    25    17    18    1
@<TRIPOS>MOLECULE
*****
 23 25 0 0 0
SMALL
GASTEIGER

@<TRIPOS>ATOM
      1 C         141.9931  141.5917  164.9990 C.ar    1  UNL1        0.0839
      2 C         143.2335  141.6828  165.8375 C.ar    1  UNL1        0.0192
      3 C         144.1529  142.8589  165.6912 C.ar    1  UNL1        0.0028
      4 C         143.8320  143.9439  164.7064 C.ar    1  UNL1        0.0161
      5 C         142.5916  143.8528  163.8679 C.ar    1  UNL1        0.0749
      6 N         141.6721  142.6766  164.0142 N.ar    1  UNL1       -0.2482
      7 C         141.3726  139.1354  164.4229 C.ar    1  UNL1        0.1423
      8 C         140.4532  137.9594  164.5693 C.ar    1  UNL1        0.0665
      9 C         139.2348  138.0634  165.4379 C.ar    1  UNL1        0.1432
     10 F         138.3153  136.8872  165.5843 F       1  UNL1       -0.2041
     11 C         138.9358  139.3435  166.1603 C.ar    1  UNL1        0.0299
     12 C         139.8552  140.5196  166.0140 C.ar    1  UNL1        0.0068
     13 C         141.0736  140.4155  165.1453 C.ar    1  UNL1        0.0517
     14 C         142.6279  138.0394  162.4297 C.3     1  UNL1        0.2525
     15 O         142.5910  139.0314  163.5543 O.3     1  UNL1       -0.4713
     16 C         142.2706  144.9377  162.8831 C.3     1  UNL1        0.1151
     17 N         141.0206  145.7510  163.0442 N.3     1  UNL1       -0.2935
     18 H         140.8644  146.2297  162.1572 H       1  UNL1        0.1236
     19 C         139.7296  145.0783  163.4064 C.3     1  UNL1        0.0543
     20 C         138.7725  144.4332  162.4483 C.3     1  UNL1        0.0157
     21 C         137.6206  143.8888  163.2399 C.3     1  UNL1        0.0014
     22 C         137.8657  144.1975  164.6872 C.3     1  UNL1        0.0014
     23 C         139.1692  144.9327  164.7901 C.3     1  UNL1        0.0157
@<TRIPOS>BOND
     1    14    15    1
     2    15     7    1
     3     7     8   ar
     4     8     9   ar
     5     9    10    1
     6     9    11   ar
     7    11    12   ar
     8    12    13   ar
     9    13     1    1
    10     1     2   ar
    11     2     3   ar
    12     3     4   ar
    13     4     5   ar
    14     5    16    1
    15    16    17    1
    16    17    19    1
    17    19    20    1
    18    20    21    1
    19    21    22    1
    20    22    23    1
    21     5     6   ar
    22    13     7   ar
    23     6     1   ar
    24    23    19    1
    25    17    18    1
@<TRIPOS>MOLECULE
*****
 23 25 0 0 0
SMALL
GASTEIGER

@<TRIPOS>ATOM
      1 C         143.5871  142.0843  165.0636 C.ar    1  UNL1        0.0839
      2 C         144.8254  141.6670  164.3271 C.ar    1  UNL1        0.0192
      3 C         145.1899  142.3346  163.0343 C.ar    1  UNL1        0.0028
      4 C         144.3161  143.4194  162.4778 C.ar    1  UNL1        0.0161
      5 C         143.0777  143.8367  163.2143 C.ar    1  UNL1        0.0749
      6 N         142.7132  143.1691  164.5072 N.ar    1  UNL1       -0.2482
      7 C         142.9067  139.9506  166.3806 C.ar    1  UNL1        0.1423
      8 C         142.5423  139.2831  167.6735 C.ar    1  UNL1        0.0665
      9 C         142.4936  140.0817  168.9423 C.ar    1  UNL1        0.1432
     10 F         142.1291  139.4141  170.2352 F       1  UNL1       -0.2041
     11 C         142.8095  141.5479  168.9182 C.ar    1  UNL1        0.0299
     12 C         143.1739  142.2154  167.6253 C.ar    1  UNL1        0.0068
     13 C         143.2226  141.4167  166.3565 C.ar    1  UNL1        0.0517
     14 C         141.7828  138.3059  164.7127 C.3     1  UNL1        0.2525
     15 O         142.9554  139.1519  165.1118 O.3     1  UNL1       -0.4713
     16 C         142.2039  144.9215  162.6579 C.3     1  UNL1        0.1151
     17 N         141.1963  145.5987  163.5389 N.3     1  UNL1       -0.2935
     18 H         141.0676  146.5405  163.1691 H       1  UNL1        0.1236
     19 C         139.8275  145.0078  163.7047 C.3     1  UNL1        0.0543
     20 C         139.1465  144.7128  165.0082 C.3     1  UNL1        0.0157
     21 C         137.7976  144.1308  164.7052 C.3     1  UNL1        0.0014
     22 C         137.6450  144.0662  163.2144 C.3     1  UNL1        0.0014
     23 C         138.8995  144.6082  162.5960 C.3     1  UNL1        0.0157
@<TRIPOS>BOND
     1    14    15    1
     2    15     7    1
     3     7     8   ar
     4     8     9   ar
     5     9    10    1
     6     9    11   ar
     7    11    12   ar
     8    12    13   ar
     9    13     1    1
    10     1     2   ar
    11     2     3   ar
    12     3     4   ar
    13     4     5   ar
    14     5    16    1
    15    16    17    1
    16    17    19    1
    17    19    20    1
    18    20    21    1
    19    21    22    1
    20    22    23    1
    21     5     6   ar
    22    13     7   ar
    23     6     1   ar
    24    23    19    1
    25    17    18    1
