@<TRIPOS>MOLECULE
*****
 36 39 0 0 0
SMALL
GASTEIGER

@<TRIPOS>ATOM
      1 C         142.4855  142.9075  158.8880 C.ar    1  UNL1        0.1331
      2 C         141.0416  143.0648  158.5137 C.ar    1  UNL1        0.0346
      3 C         140.1180  143.8465  159.4001 C.ar    1  UNL1        0.0102
      4 C         140.6383  144.4708  160.6609 C.ar    1  UNL1        0.0849
      5 C         142.0823  144.3134  161.0352 C.ar    1  UNL1        0.1379
      6 N         143.0059  143.5317  160.1487 N.ar    1  UNL1       -0.2158
      7 C         145.3743  141.4244  156.7616 C.3     1  UNL1        0.0933
      8 C         144.2870  140.4213  156.5132 C.3     1  UNL1        0.0428
      9 C         143.0726  140.8548  157.2795 C.3     1  UNL1        0.0940
     10 N         143.4093  142.1257  158.0015 N.pl3   1  UNL1       -0.2915
     11 C         144.8318  142.4778  157.6814 C.3     1  UNL1        0.1117
     12 C         147.1049  142.2177  154.9936 C.2     1  UNL1        0.2460
     13 O         146.0628  143.0967  154.3681 O.2     1  UNL1       -0.2701
     14 N         146.7606  141.3816  156.1904 N.am    1  UNL1       -0.3007
     15 H         147.4446  140.8046  156.6010 H       1  UNL1        0.1497
     16 C         149.6343  141.6895  155.2637 C.2     1  UNL1        0.0048
     17 C         148.4912  142.1749  154.4225 C.2     1  UNL1        0.0577
     18 C         139.7146  145.2525  161.5474 C.2     1  UNL1        0.2455
     19 N         138.4684  144.6120  162.0828 N.am    1  UNL1       -0.3252
     20 O         140.0371  146.6747  161.8983 O.2     1  UNL1       -0.2703
     21 H         138.2567  143.6785  161.8524 H       1  UNL1        0.1453
     22 H         137.8622  145.1250  162.6646 H       1  UNL1        0.1453
     23 N         142.6026  144.9377  162.2959 N.pl3   1  UNL1       -0.2966
     24 H         142.9088  145.8734  162.2919 H       1  UNL1        0.1537
     25 C         142.6565  144.1364  163.5628 C.ar    1  UNL1        0.0689
     26 C         143.9557  143.9784  164.2956 C.ar    1  UNL1        0.0191
     27 C         144.0095  143.1770  165.5626 C.ar    1  UNL1        0.0356
     28 C         142.7641  142.5338  166.0966 C.ar    1  UNL1        0.1318
     29 N         141.4649  142.6919  165.3638 N.ar    1  UNL1       -0.2279
     30 C         141.4110  143.4932  164.0969 C.ar    1  UNL1        0.1149
     31 N         142.8179  141.7325  167.3635 N.pl3   1  UNL1       -0.2932
     32 C         142.4036  140.2908  167.3573 C.3     1  UNL1        0.0922
     33 C         142.4574  139.4895  168.6241 C.3     1  UNL1        0.0215
     34 C         142.9255  140.1298  169.8972 C.3     1  UNL1        0.0035
     35 C         143.3398  141.5715  169.9035 C.3     1  UNL1        0.0215
     36 C         143.2860  142.3728  168.6367 C.3     1  UNL1        0.0922
@<TRIPOS>BOND
     1    16    17    2
     2    17    12    1
     3    12    13    2
     4    12    14   am
     5     7    14    1
     6     7     8    1
     7     8     9    1
     8     9    10    1
     9    10     1    1
    10     1     2   ar
    11     2     3   ar
    12     3     4   ar
    13     4    18    1
    14    18    19   am
    15    18    20    2
    16     4     5   ar
    17     5    23    1
    18    23    25    1
    19    25    26   ar
    20    26    27   ar
    21    27    28   ar
    22    28    31    1
    23    31    32    1
    24    32    33    1
    25    33    34    1
    26    34    35    1
    27    35    36    1
    28    28    29   ar
    29    29    30   ar
    30     5     6   ar
    31    10    11    1
    32    11     7    1
    33     6     1   ar
    34    30    25   ar
    35    36    31    1
    36    14    15    1
    37    19    21    1
    38    19    22    1
    39    23    24    1
@<TRIPOS>MOLECULE
*****
 36 39 0 0 0
SMALL
GASTEIGER

@<TRIPOS>ATOM
      1 C         142.3274  143.4483  159.3421 C.ar    1  UNL1        0.1331
      2 C         142.8806  142.1111  158.9475 C.ar    1  UNL1        0.0346
      3 C         143.7505  141.3481  159.9020 C.ar    1  UNL1        0.0102
      4 C         144.0672  141.9223  161.2510 C.ar    1  UNL1        0.0849
      5 C         143.5140  143.2596  161.6456 C.ar    1  UNL1        0.1379
      6 N         142.6441  144.0225  160.6911 N.ar    1  UNL1       -0.2158
      7 C         140.6305  145.9329  156.8899 C.3     1  UNL1        0.0933
      8 C         139.6068  144.8380  156.9477 C.3     1  UNL1        0.0428
      9 C         140.1179  143.7740  157.8733 C.3     1  UNL1        0.0940
     10 N         141.4574  144.2113  158.3876 N.pl3   1  UNL1       -0.2915
     11 C         141.7742  145.5455  157.7798 C.3     1  UNL1        0.1117
     12 C         140.4310  147.1221  154.5886 C.2     1  UNL1        0.2460
     13 O         140.4356  145.7897  153.8997 O.2     1  UNL1       -0.2701
     14 N         140.5284  147.1937  156.0837 N.am    1  UNL1       -0.3007
     15 H         140.5254  148.0682  156.5359 H       1  UNL1        0.1497
     16 C         139.6064  149.5733  154.3402 C.2     1  UNL1        0.0048
     17 C         140.3289  148.3830  153.7824 C.2     1  UNL1        0.0577
     18 C         144.9372  141.1593  162.2055 C.2     1  UNL1        0.2455
     19 N         144.6600  139.7107  162.4788 N.am    1  UNL1       -0.3252
     20 O         146.0843  141.8449  162.8867 O.2     1  UNL1       -0.2703
     21 H         143.9070  139.2607  162.0318 H       1  UNL1        0.1453
     22 H         145.2309  139.2099  163.1053 H       1  UNL1        0.1453
     23 N         143.8307  143.8338  162.9947 N.pl3   1  UNL1       -0.2966
     24 H         144.5439  144.5059  163.0885 H       1  UNL1        0.1537
     25 C         143.0607  143.3841  164.2008 C.ar    1  UNL1        0.0689
     26 C         143.7862  142.8214  165.3869 C.ar    1  UNL1        0.0191
     27 C         143.0161  142.3716  166.5931 C.ar    1  UNL1        0.0356
     28 C         141.5206  142.4845  166.6131 C.ar    1  UNL1        0.1318
     29 N         140.7950  143.0472  165.4269 N.ar    1  UNL1       -0.2279
     30 C         141.5650  143.4969  164.2208 C.ar    1  UNL1        0.1149
     31 N         140.7505  142.0348  167.8192 N.pl3   1  UNL1       -0.2932
     32 C         140.6449  142.9298  169.0183 C.3     1  UNL1        0.0922
     33 C         139.8749  142.4801  170.2244 C.3     1  UNL1        0.0215
     34 C         139.2104  141.1354  170.2315 C.3     1  UNL1        0.0035
     35 C         139.3159  140.2404  169.0324 C.3     1  UNL1        0.0215
     36 C         140.0860  140.6901  167.8263 C.3     1  UNL1        0.0922
@<TRIPOS>BOND
     1    16    17    2
     2    17    12    1
     3    12    13    2
     4    12    14   am
     5     7    14    1
     6     7     8    1
     7     8     9    1
     8     9    10    1
     9    10     1    1
    10     1     2   ar
    11     2     3   ar
    12     3     4   ar
    13     4    18    1
    14    18    19   am
    15    18    20    2
    16     4     5   ar
    17     5    23    1
    18    23    25    1
    19    25    26   ar
    20    26    27   ar
    21    27    28   ar
    22    28    31    1
    23    31    32    1
    24    32    33    1
    25    33    34    1
    26    34    35    1
    27    35    36    1
    28    28    29   ar
    29    29    30   ar
    30     5     6   ar
    31    10    11    1
    32    11     7    1
    33     6     1   ar
    34    30    25   ar
    35    36    31    1
    36    14    15    1
    37    19    21    1
    38    19    22    1
    39    23    24    1
@<TRIPOS>MOLECULE
*****
 36 39 0 0 0
SMALL
GASTEIGER

@<TRIPOS>ATOM
      1 C         138.4362  142.6288  156.5337 C.ar    1  UNL1        0.1331
      2 C         139.5639  143.0709  155.6489 C.ar    1  UNL1        0.0346
      3 C         140.7112  143.8453  156.2266 C.ar    1  UNL1        0.0102
      4 C         140.7309  144.1776  157.6892 C.ar    1  UNL1        0.0849
      5 C         139.6033  143.7356  158.5740 C.ar    1  UNL1        0.1379
      6 N         138.4560  142.9612  157.9963 N.ar    1  UNL1       -0.2158
      7 C         135.4591  140.2791  155.7083 C.3     1  UNL1        0.0933
      8 C         135.5872  141.0462  154.4256 C.3     1  UNL1        0.0428
      9 C         136.7180  142.0197  154.5788 C.3     1  UNL1        0.0940
     10 N         137.2888  141.8543  155.9560 N.pl3   1  UNL1       -0.2915
     11 C         136.5108  140.7785  156.6541 C.3     1  UNL1        0.1117
     12 C         133.0482  139.5665  156.3637 C.2     1  UNL1        0.2460
     13 O         132.6443  141.0087  156.4460 O.2     1  UNL1       -0.2701
     14 N         134.4556  139.2016  155.9949 N.am    1  UNL1       -0.3007
     15 H         134.7207  138.2550  155.9408 H       1  UNL1        0.1497
     16 C         131.0420  138.6715  157.7509 C.2     1  UNL1        0.0048
     17 C         132.0446  138.4890  156.6502 C.2     1  UNL1        0.0577
     18 C         141.8784  144.9521  158.2669 C.2     1  UNL1        0.2455
     19 N         142.3582  146.2004  157.5877 N.am    1  UNL1       -0.3252
     20 O         142.5459  144.4782  159.5238 O.2     1  UNL1       -0.2703
     21 H         141.9201  146.5115  156.7627 H       1  UNL1        0.1453
     22 H         143.1113  146.7087  157.9669 H       1  UNL1        0.1453
     23 N         139.6231  144.0679  160.0366 N.pl3   1  UNL1       -0.2966
     24 H         139.7773  144.9954  160.3286 H       1  UNL1        0.1537
     25 C         139.4079  142.9872  161.0543 C.ar    1  UNL1        0.0689
     26 C         138.0460  142.7745  161.6459 C.ar    1  UNL1        0.0191
     27 C         137.8309  141.6937  162.6636 C.ar    1  UNL1        0.0356
     28 C         138.9776  140.8257  163.0897 C.ar    1  UNL1        0.1318
     29 N         140.3395  141.0384  162.4981 N.ar    1  UNL1       -0.2279
     30 C         140.5546  142.1191  161.4804 C.ar    1  UNL1        0.1149
     31 N         138.7624  139.7449  164.1074 N.pl3   1  UNL1       -0.2932
     32 C         139.1513  138.3307  163.7931 C.3     1  UNL1        0.0922
     33 C         138.9361  137.2499  164.8108 C.3     1  UNL1        0.0215
     34 C         138.3322  137.5834  166.1427 C.3     1  UNL1        0.0035
     35 C         137.9434  138.9976  166.4569 C.3     1  UNL1        0.0215
     36 C         138.1585  140.0784  165.4393 C.3     1  UNL1        0.0922
@<TRIPOS>BOND
     1    16    17    2
     2    17    12    1
     3    12    13    2
     4    12    14   am
     5     7    14    1
     6     7     8    1
     7     8     9    1
     8     9    10    1
     9    10     1    1
    10     1     2   ar
    11     2     3   ar
    12     3     4   ar
    13     4    18    1
    14    18    19   am
    15    18    20    2
    16     4     5   ar
    17     5    23    1
    18    23    25    1
    19    25    26   ar
    20    26    27   ar
    21    27    28   ar
    22    28    31    1
    23    31    32    1
    24    32    33    1
    25    33    34    1
    26    34    35    1
    27    35    36    1
    28    28    29   ar
    29    29    30   ar
    30     5     6   ar
    31    10    11    1
    32    11     7    1
    33     6     1   ar
    34    30    25   ar
    35    36    31    1
    36    14    15    1
    37    19    21    1
    38    19    22    1
    39    23    24    1
@<TRIPOS>MOLECULE
*****
 36 39 0 0 0
SMALL
GASTEIGER

@<TRIPOS>ATOM
      1 C         134.2022  140.7096  155.8349 C.ar    1  UNL1        0.1331
      2 C         134.4476  141.3032  154.4795 C.ar    1  UNL1        0.0346
      3 C         135.8510  141.5588  154.0156 C.ar    1  UNL1        0.0102
      4 C         137.0089  141.2208  154.9072 C.ar    1  UNL1        0.0849
      5 C         136.7635  140.6271  156.2626 C.ar    1  UNL1        0.1379
      6 N         135.3601  140.3715  156.7265 N.ar    1  UNL1       -0.2158
      7 C         130.9010  139.6270  157.5658 C.3     1  UNL1        0.0933
      8 C         130.3774  140.4942  156.4596 C.3     1  UNL1        0.0428
      9 C         131.5503  141.0053  155.6766 C.3     1  UNL1        0.0940
     10 N         132.7988  140.4539  156.2988 N.pl3   1  UNL1       -0.2915
     11 C         132.3975  139.6021  157.4664 C.3     1  UNL1        0.1117
     12 C         129.1790  137.7800  158.1766 C.2     1  UNL1        0.2460
     13 O         129.1121  137.3661  156.7364 O.2     1  UNL1       -0.2701
     14 N         130.0735  138.9104  158.5913 N.am    1  UNL1       -0.3007
     15 H         130.1174  139.1820  159.5366 H       1  UNL1        0.1497
     16 C         127.1252  136.3084  158.7821 C.2     1  UNL1        0.0048
     17 C         128.3514  137.0634  159.2022 C.2     1  UNL1        0.0577
     18 C         138.4123  141.4764  154.4432 C.2     1  UNL1        0.2455
     19 N         138.7982  142.8332  153.9333 N.am    1  UNL1       -0.3252
     20 O         139.4297  140.3752  154.4892 O.2     1  UNL1       -0.2703
     21 H         138.1305  143.5560  153.9031 H       1  UNL1        0.1453
     22 H         139.7193  143.0010  153.6288 H       1  UNL1        0.1453
     23 N         137.9214  140.2890  157.1542 N.pl3   1  UNL1       -0.2966
     24 H         138.5506  139.5775  156.8953 H       1  UNL1        0.1537
     25 C         138.1206  141.0351  158.4401 C.ar    1  UNL1        0.0689
     26 C         137.9342  140.3318  159.7519 C.ar    1  UNL1        0.0191
     27 C         138.1334  141.0779  161.0379 C.ar    1  UNL1        0.0356
     28 C         138.5191  142.5272  161.0121 C.ar    1  UNL1        0.1318
     29 N         138.7056  143.2305  159.7003 N.ar    1  UNL1       -0.2279
     30 C         138.5064  142.4844  158.4144 C.ar    1  UNL1        0.1149
     31 N         138.7184  143.2733  162.2981 N.pl3   1  UNL1       -0.2932
     32 C         140.0159  143.9778  162.5631 C.3     1  UNL1        0.0922
     33 C         140.2152  144.7238  163.8490 C.3     1  UNL1        0.0215
     34 C         139.1170  144.7655  164.8699 C.3     1  UNL1        0.0035
     35 C         137.8195  144.0610  164.6048 C.3     1  UNL1        0.0215
     36 C         137.6202  143.3150  163.3189 C.3     1  UNL1        0.0922
@<TRIPOS>BOND
     1    16    17    2
     2    17    12    1
     3    12    13    2
     4    12    14   am
     5     7    14    1
     6     7     8    1
     7     8     9    1
     8     9    10    1
     9    10     1    1
    10     1     2   ar
    11     2     3   ar
    12     3     4   ar
    13     4    18    1
    14    18    19   am
    15    18    20    2
    16     4     5   ar
    17     5    23    1
    18    23    25    1
    19    25    26   ar
    20    26    27   ar
    21    27    28   ar
    22    28    31    1
    23    31    32    1
    24    32    33    1
    25    33    34    1
    26    34    35    1
    27    35    36    1
    28    28    29   ar
    29    29    30   ar
    30     5     6   ar
    31    10    11    1
    32    11     7    1
    33     6     1   ar
    34    30    25   ar
    35    36    31    1
    36    14    15    1
    37    19    21    1
    38    19    22    1
    39    23    24    1
@<TRIPOS>MOLECULE
*****
 36 39 0 0 0
SMALL
GASTEIGER

@<TRIPOS>ATOM
      1 C         142.6588  138.5895  158.1788 C.ar    1  UNL1        0.1331
      2 C         142.2801  140.0081  157.8719 C.ar    1  UNL1        0.0346
      3 C         142.6475  141.1056  158.8262 C.ar    1  UNL1        0.0102
      4 C         143.3935  140.7845  160.0873 C.ar    1  UNL1        0.0849
      5 C         143.7721  139.3659  160.3941 C.ar    1  UNL1        0.1379
      6 N         143.4048  138.2684  159.4399 N.ar    1  UNL1       -0.2158
      7 C         142.4216  135.5270  155.8061 C.3     1  UNL1        0.0933
      8 C         141.0305  136.0793  155.7063 C.3     1  UNL1        0.0428
      9 C         140.9501  137.2937  156.5830 C.3     1  UNL1        0.0940
     10 N         142.2914  137.4920  157.2246 N.pl3   1  UNL1       -0.2915
     11 C         143.2008  136.4001  156.7444 C.3     1  UNL1        0.1117
     12 C         143.0837  133.0148  155.8281 C.2     1  UNL1        0.2460
     13 O         142.7050  132.9277  157.2768 O.2     1  UNL1       -0.2701
     14 N         142.9420  134.3144  155.0927 N.am    1  UNL1       -0.3007
     15 H         143.1906  134.3716  154.1418 H       1  UNL1        0.1497
     16 C         144.7756  131.0492  155.6721 C.2     1  UNL1        0.0048
     17 C         143.6042  131.8022  155.1147 C.2     1  UNL1        0.0577
     18 C         143.7608  141.8820  161.0415 C.2     1  UNL1        0.2455
     19 N         145.1373  142.4769  161.0063 N.am    1  UNL1       -0.3252
     20 O         142.7516  142.3846  162.0309 O.2     1  UNL1       -0.2703
     21 H         145.7997  142.1470  160.3570 H       1  UNL1        0.1453
     22 H         145.3784  143.1972  161.6326 H       1  UNL1        0.1453
     23 N         144.5181  139.0448  161.6552 N.pl3   1  UNL1       -0.2966
     24 H         145.4524  138.7376  161.6099 H       1  UNL1        0.1537
     25 C         143.8407  139.1917  162.9854 C.ar    1  UNL1        0.0689
     26 C         142.4790  138.6014  163.2029 C.ar    1  UNL1        0.0191
     27 C         141.8016  138.7484  164.5332 C.ar    1  UNL1        0.0356
     28 C         142.4859  139.4856  165.6459 C.ar    1  UNL1        0.1318
     29 N         143.8476  140.0759  165.4285 N.ar    1  UNL1       -0.2279
     30 C         144.5250  139.9290  164.0982 C.ar    1  UNL1        0.1149
     31 N         141.8085  139.6325  166.9762 N.pl3   1  UNL1       -0.2932
     32 C         140.3526  139.9876  167.0413 C.3     1  UNL1        0.0922
     33 C         139.6752  140.1345  168.3715 C.3     1  UNL1        0.0215
     34 C         140.4537  139.9265  169.6366 C.3     1  UNL1        0.0035
     35 C         141.9096  139.5714  169.5716 C.3     1  UNL1        0.0215
     36 C         142.5870  139.4245  168.2414 C.3     1  UNL1        0.0922
@<TRIPOS>BOND
     1    16    17    2
     2    17    12    1
     3    12    13    2
     4    12    14   am
     5     7    14    1
     6     7     8    1
     7     8     9    1
     8     9    10    1
     9    10     1    1
    10     1     2   ar
    11     2     3   ar
    12     3     4   ar
    13     4    18    1
    14    18    19   am
    15    18    20    2
    16     4     5   ar
    17     5    23    1
    18    23    25    1
    19    25    26   ar
    20    26    27   ar
    21    27    28   ar
    22    28    31    1
    23    31    32    1
    24    32    33    1
    25    33    34    1
    26    34    35    1
    27    35    36    1
    28    28    29   ar
    29    29    30   ar
    30     5     6   ar
    31    10    11    1
    32    11     7    1
    33     6     1   ar
    34    30    25   ar
    35    36    31    1
    36    14    15    1
    37    19    21    1
    38    19    22    1
    39    23    24    1
@<TRIPOS>MOLECULE
*****
 36 39 0 0 0
SMALL
GASTEIGER

@<TRIPOS>ATOM
      1 C         141.1092  138.9457  159.6502 C.ar    1  UNL1        0.1331
      2 C         142.1258  140.0338  159.8310 C.ar    1  UNL1        0.0346
      3 C         143.1137  140.3258  158.7408 C.ar    1  UNL1        0.0102
      4 C         143.0851  139.5298  157.4697 C.ar    1  UNL1        0.0849
      5 C         142.0685  138.4418  157.2889 C.ar    1  UNL1        0.1379
      6 N         141.0806  138.1497  158.3791 N.ar    1  UNL1       -0.2158
      7 C         139.1519  138.2357  162.9259 C.3     1  UNL1        0.0933
      8 C         138.0497  138.1727  161.9103 C.3     1  UNL1        0.0428
      9 C         138.6488  138.4311  160.5596 C.3     1  UNL1        0.0940
     10 N         140.1212  138.6537  160.7404 N.pl3   1  UNL1       -0.2915
     11 C         140.4320  138.5329  162.2029 C.3     1  UNL1        0.1117
     12 C         138.4335  139.1342  165.2554 C.2     1  UNL1        0.2460
     13 O         138.0182  140.4313  164.6270 O.2     1  UNL1       -0.2701
     14 N         139.0003  138.0364  164.4049 N.am    1  UNL1       -0.3007
     15 H         139.2729  137.1850  164.8173 H       1  UNL1        0.1497
     16 C         137.2605  137.9707  167.2605 C.2     1  UNL1        0.0048
     17 C         138.2820  138.9349  166.7344 C.2     1  UNL1        0.0577
     18 C         144.0731  139.8219  156.3795 C.2     1  UNL1        0.2455
     19 N         145.4745  140.2286  156.7266 N.am    1  UNL1       -0.3252
     20 O         143.6596  139.7072  154.9422 O.2     1  UNL1       -0.2703
     21 H         145.7459  140.3039  157.6699 H       1  UNL1        0.1453
     22 H         146.1230  140.4203  156.0110 H       1  UNL1        0.1453
     23 N         142.0399  137.6458  156.0179 N.pl3   1  UNL1       -0.2966
     24 H         141.9488  138.1046  155.1516 H       1  UNL1        0.1537
     25 C         142.1502  136.1507  156.0666 C.ar    1  UNL1        0.0689
     26 C         141.2702  135.3049  155.1947 C.ar    1  UNL1        0.0191
     27 C         141.3805  133.8097  155.2435 C.ar    1  UNL1        0.0356
     28 C         142.3708  133.1603  156.1642 C.ar    1  UNL1        0.1318
     29 N         143.2508  134.0061  157.0361 N.ar    1  UNL1       -0.2279
     30 C         143.1406  135.5013  156.9873 C.ar    1  UNL1        0.1149
     31 N         142.4811  131.6652  156.2130 N.pl3   1  UNL1       -0.2932
     32 C         143.3938  131.0126  157.2085 C.3     1  UNL1        0.0922
     33 C         143.5042  129.5175  157.2574 C.3     1  UNL1        0.0215
     34 C         142.7019  128.6749  156.3106 C.3     1  UNL1        0.0035
     35 C         141.7892  129.3275  155.3150 C.3     1  UNL1        0.0215
     36 C         141.6788  130.8226  155.2662 C.3     1  UNL1        0.0922
@<TRIPOS>BOND
     1    16    17    2
     2    17    12    1
     3    12    13    2
     4    12    14   am
     5     7    14    1
     6     7     8    1
     7     8     9    1
     8     9    10    1
     9    10     1    1
    10     1     2   ar
    11     2     3   ar
    12     3     4   ar
    13     4    18    1
    14    18    19   am
    15    18    20    2
    16     4     5   ar
    17     5    23    1
    18    23    25    1
    19    25    26   ar
    20    26    27   ar
    21    27    28   ar
    22    28    31    1
    23    31    32    1
    24    32    33    1
    25    33    34    1
    26    34    35    1
    27    35    36    1
    28    28    29   ar
    29    29    30   ar
    30     5     6   ar
    31    10    11    1
    32    11     7    1
    33     6     1   ar
    34    30    25   ar
    35    36    31    1
    36    14    15    1
    37    19    21    1
    38    19    22    1
    39    23    24    1
@<TRIPOS>MOLECULE
*****
 36 39 0 0 0
SMALL
GASTEIGER

@<TRIPOS>ATOM
      1 C         138.1524  143.5742  155.7744 C.ar    1  UNL1        0.1331
      2 C         136.8430  143.4646  155.0509 C.ar    1  UNL1        0.0346
      3 C         136.1568  142.1355  154.9392 C.ar    1  UNL1        0.0102
      4 C         136.7800  140.9159  155.5509 C.ar    1  UNL1        0.0849
      5 C         138.0894  141.0255  156.2744 C.ar    1  UNL1        0.1379
      6 N         138.7756  142.3546  156.3861 N.ar    1  UNL1       -0.2158
      7 C         139.3596  147.2605  155.6352 C.3     1  UNL1        0.0933
      8 C         140.4300  146.6367  156.4810 C.3     1  UNL1        0.0428
      9 C         140.1080  145.1799  156.6361 C.3     1  UNL1        0.0940
     10 N         138.8387  144.9033  155.8861 N.pl3   1  UNL1       -0.2915
     11 C         138.3762  146.1892  155.2676 C.3     1  UNL1        0.1117
     12 C         138.6632  149.7103  156.1486 C.2     1  UNL1        0.2460
     13 O         138.1146  149.2762  157.4755 O.2     1  UNL1       -0.2701
     14 N         139.2857  148.7024  155.2285 N.am    1  UNL1       -0.3007
     15 H         139.6458  148.9873  154.3576 H       1  UNL1        0.1497
     16 C         139.3565  151.6346  154.5467 C.2     1  UNL1        0.0048
     17 C         138.5893  151.1522  155.7419 C.2     1  UNL1        0.0577
     18 C         136.0938  139.5868  155.4392 C.2     1  UNL1        0.2455
     19 N         134.6532  139.4509  155.8343 N.am    1  UNL1       -0.3252
     20 O         136.8482  138.3935  154.9323 O.2     1  UNL1       -0.2703
     21 H         134.1580  140.2341  156.1670 H       1  UNL1        0.1453
     22 H         134.2028  138.5786  155.7610 H       1  UNL1        0.1453
     23 N         138.7126  139.8059  156.8861 N.pl3   1  UNL1       -0.2966
     24 H         139.1373  139.1290  156.3110 H       1  UNL1        0.1537
     25 C         138.6888  139.6176  158.3740 C.ar    1  UNL1        0.0689
     26 C         137.6927  140.3664  159.2090 C.ar    1  UNL1        0.0191
     27 C         137.6689  140.1780  160.6969 C.ar    1  UNL1        0.0356
     28 C         138.6412  139.2410  161.3500 C.ar    1  UNL1        0.1318
     29 N         139.6373  138.4922  160.5150 N.ar    1  UNL1       -0.2279
     30 C         139.6612  138.6805  159.0271 C.ar    1  UNL1        0.1149
     31 N         138.6174  139.0526  162.8379 N.pl3   1  UNL1       -0.2932
     32 C         138.2136  140.1879  163.7312 C.3     1  UNL1        0.0922
     33 C         138.1898  139.9997  165.2192 C.3     1  UNL1        0.0215
     34 C         138.5699  138.6761  165.8138 C.3     1  UNL1        0.0035
     35 C         138.9737  137.5408  164.9205 C.3     1  UNL1        0.0215
     36 C         138.9975  137.7290  163.4326 C.3     1  UNL1        0.0922
@<TRIPOS>BOND
     1    16    17    2
     2    17    12    1
     3    12    13    2
     4    12    14   am
     5     7    14    1
     6     7     8    1
     7     8     9    1
     8     9    10    1
     9    10     1    1
    10     1     2   ar
    11     2     3   ar
    12     3     4   ar
    13     4    18    1
    14    18    19   am
    15    18    20    2
    16     4     5   ar
    17     5    23    1
    18    23    25    1
    19    25    26   ar
    20    26    27   ar
    21    27    28   ar
    22    28    31    1
    23    31    32    1
    24    32    33    1
    25    33    34    1
    26    34    35    1
    27    35    36    1
    28    28    29   ar
    29    29    30   ar
    30     5     6   ar
    31    10    11    1
    32    11     7    1
    33     6     1   ar
    34    30    25   ar
    35    36    31    1
    36    14    15    1
    37    19    21    1
    38    19    22    1
    39    23    24    1
@<TRIPOS>MOLECULE
*****
 36 39 0 0 0
SMALL
GASTEIGER

@<TRIPOS>ATOM
      1 C         140.1148  137.2070  155.1577 C.ar    1  UNL1        0.1331
      2 C         138.9474  137.1638  154.2169 C.ar    1  UNL1        0.0346
      3 C         137.8779  138.2122  154.3001 C.ar    1  UNL1        0.0102
      4 C         137.9758  139.3038  155.3243 C.ar    1  UNL1        0.0849
      5 C         139.1432  139.3470  156.2652 C.ar    1  UNL1        0.1379
      6 N         140.2127  138.2986  156.1819 N.ar    1  UNL1       -0.2158
      7 C         143.0609  134.7258  155.6367 C.3     1  UNL1        0.0933
      8 C         142.5994  134.3646  154.2559 C.3     1  UNL1        0.0428
      9 C         141.4396  135.2501  153.9084 C.3     1  UNL1        0.0940
     10 N         141.1843  136.1586  155.0745 N.pl3   1  UNL1       -0.2915
     11 C         142.1864  135.8345  156.1426 C.3     1  UNL1        0.1117
     12 C         143.9684  132.8352  157.1704 C.2     1  UNL1        0.2460
     13 O         142.6027  132.2165  157.2156 O.2     1  UNL1       -0.2701
     14 N         144.1975  134.0899  156.3810 N.am    1  UNL1       -0.3007
     15 H         145.0938  134.4961  156.3513 H       1  UNL1        0.1497
     16 C         145.1040  130.7202  158.1641 C.2     1  UNL1        0.0048
     17 C         145.1050  132.1993  157.9147 C.2     1  UNL1        0.0577
     18 C         136.9062  140.3522  155.4075 C.2     1  UNL1        0.2455
     19 N         136.8079  141.4092  154.3478 N.am    1  UNL1       -0.3252
     20 O         135.9349  140.3437  156.5506 O.2     1  UNL1       -0.2703
     21 H         137.4454  141.4148  153.5975 H       1  UNL1        0.1453
     22 H         136.1059  142.0973  154.4024 H       1  UNL1        0.1453
     23 N         139.2411  140.4386  157.2893 N.pl3   1  UNL1       -0.2966
     24 H         139.3963  141.3681  157.0046 H       1  UNL1        0.1537
     25 C         139.1024  140.1138  158.7471 C.ar    1  UNL1        0.0689
     26 C         137.7716  140.2572  159.4242 C.ar    1  UNL1        0.0191
     27 C         137.6330  139.9324  160.8821 C.ar    1  UNL1        0.0356
     28 C         138.8252  139.4644  161.6628 C.ar    1  UNL1        0.1318
     29 N         140.1560  139.3211  160.9858 N.ar    1  UNL1       -0.2279
     30 C         140.2946  139.6458  159.5280 C.ar    1  UNL1        0.1149
     31 N         138.6866  139.1397  163.1208 N.pl3   1  UNL1       -0.2932
     32 C         138.2431  140.1986  164.0861 C.3     1  UNL1        0.0922
     33 C         138.1045  139.8739  165.5440 C.3     1  UNL1        0.0215
     34 C         138.4094  138.4903  166.0364 C.3     1  UNL1        0.0035
     35 C         138.8529  137.4313  165.0711 C.3     1  UNL1        0.0215
     36 C         138.9915  137.7560  163.6132 C.3     1  UNL1        0.0922
@<TRIPOS>BOND
     1    16    17    2
     2    17    12    1
     3    12    13    2
     4    12    14   am
     5     7    14    1
     6     7     8    1
     7     8     9    1
     8     9    10    1
     9    10     1    1
    10     1     2   ar
    11     2     3   ar
    12     3     4   ar
    13     4    18    1
    14    18    19   am
    15    18    20    2
    16     4     5   ar
    17     5    23    1
    18    23    25    1
    19    25    26   ar
    20    26    27   ar
    21    27    28   ar
    22    28    31    1
    23    31    32    1
    24    32    33    1
    25    33    34    1
    26    34    35    1
    27    35    36    1
    28    28    29   ar
    29    29    30   ar
    30     5     6   ar
    31    10    11    1
    32    11     7    1
    33     6     1   ar
    34    30    25   ar
    35    36    31    1
    36    14    15    1
    37    19    21    1
    38    19    22    1
    39    23    24    1
@<TRIPOS>MOLECULE
*****
 36 39 0 0 0
SMALL
GASTEIGER

@<TRIPOS>ATOM
      1 C         135.4005  140.2040  155.7487 C.ar    1  UNL1        0.1331
      2 C         135.8040  139.6614  154.4098 C.ar    1  UNL1        0.0346
      3 C         137.2558  139.5697  154.0443 C.ar    1  UNL1        0.0102
      4 C         138.3042  140.0206  155.0177 C.ar    1  UNL1        0.0849
      5 C         137.9008  140.5632  156.3566 C.ar    1  UNL1        0.1379
      6 N         136.4489  140.6549  156.7221 N.ar    1  UNL1       -0.2158
      7 C         131.8241  139.9483  157.2351 C.3     1  UNL1        0.0933
      8 C         131.6047  140.9256  156.1184 C.3     1  UNL1        0.0428
      9 C         132.9177  141.1403  155.4257 C.3     1  UNL1        0.0940
     10 N         133.9486  140.2957  156.1143 N.pl3   1  UNL1       -0.2915
     11 C         133.2727  139.5591  157.2325 C.3     1  UNL1        0.1117
     12 C         129.9251  138.2724  157.8140 C.2     1  UNL1        0.2460
     13 O         130.1174  137.5968  156.4886 O.2     1  UNL1       -0.2701
     14 N         130.7784  139.4482  158.1872 N.am    1  UNL1       -0.3007
     15 H         130.6522  139.8916  159.0571 H       1  UNL1        0.1497
     16 C         127.8385  136.8008  158.2942 C.2     1  UNL1        0.0048
     17 C         128.8794  137.7723  158.7661 C.2     1  UNL1        0.0577
     18 C         139.7562  139.9288  154.6522 C.2     1  UNL1        0.2455
     19 N         140.2447  140.5250  153.3654 N.am    1  UNL1       -0.3252
     20 O         140.7195  139.2409  155.5734 O.2     1  UNL1       -0.2703
     21 H         139.6124  140.9766  152.7607 H       1  UNL1        0.1453
     22 H         141.1976  140.4648  153.1255 H       1  UNL1        0.1453
     23 N         138.9492  141.0141  157.3300 N.pl3   1  UNL1       -0.2966
     24 H         139.6869  141.5912  157.0267 H       1  UNL1        0.1537
     25 C         138.8737  140.5858  158.7656 C.ar    1  UNL1        0.0689
     26 C         138.4011  141.5507  159.8123 C.ar    1  UNL1        0.0191
     27 C         138.3256  141.1224  161.2479 C.ar    1  UNL1        0.0356
     28 C         138.7226  139.7291  161.6367 C.ar    1  UNL1        0.1318
     29 N         139.1951  138.7642  160.5900 N.ar    1  UNL1       -0.2279
     30 C         139.2707  139.1925  159.1544 C.ar    1  UNL1        0.1149
     31 N         138.6470  139.3007  163.0723 N.pl3   1  UNL1       -0.2932
     32 C         138.1997  140.2736  164.1227 C.3     1  UNL1        0.0922
     33 C         138.1242  139.8453  165.5582 C.3     1  UNL1        0.0215
     34 C         138.4959  138.4441  165.9433 C.3     1  UNL1        0.0035
     35 C         138.9432  137.4712  164.8929 C.3     1  UNL1        0.0215
     36 C         139.0188  137.8995  163.4574 C.3     1  UNL1        0.0922
@<TRIPOS>BOND
     1    16    17    2
     2    17    12    1
     3    12    13    2
     4    12    14   am
     5     7    14    1
     6     7     8    1
     7     8     9    1
     8     9    10    1
     9    10     1    1
    10     1     2   ar
    11     2     3   ar
    12     3     4   ar
    13     4    18    1
    14    18    19   am
    15    18    20    2
    16     4     5   ar
    17     5    23    1
    18    23    25    1
    19    25    26   ar
    20    26    27   ar
    21    27    28   ar
    22    28    31    1
    23    31    32    1
    24    32    33    1
    25    33    34    1
    26    34    35    1
    27    35    36    1
    28    28    29   ar
    29    29    30   ar
    30     5     6   ar
    31    10    11    1
    32    11     7    1
    33     6     1   ar
    34    30    25   ar
    35    36    31    1
    36    14    15    1
    37    19    21    1
    38    19    22    1
    39    23    24    1
