@<TRIPOS>MOLECULE
*****
 28 30 0 0 0
SMALL
GASTEIGER

@<TRIPOS>ATOM
      1 C         140.2158  143.4501  164.5981 C.ar    1  UNL1        0.0550
      2 C         138.7481  143.6737  164.8118 C.ar    1  UNL1        0.0046
      3 C         137.9348  144.3704  163.7614 C.ar    1  UNL1        0.0015
      4 C         138.5892  144.8435  162.4974 C.ar    1  UNL1        0.0199
      5 C         140.0570  144.6199  162.2837 C.ar    1  UNL1        0.1221
      6 C         140.8703  143.9232  163.3339 C.ar    1  UNL1        0.0244
      7 N         140.4267  142.4579  166.9899 N.am    1  UNL1       -0.2804
      8 C         141.0291  142.7534  165.6484 C.2     1  UNL1        0.2495
      9 O         142.4449  142.3522  165.3571 O.2     1  UNL1       -0.2698
     10 H         139.4975  142.7212  167.1811 H       1  UNL1        0.1552
     11 C         144.4574  142.4181  170.2689 C.3     1  UNL1        0.0334
     12 C         143.2554  141.7413  169.6797 C.ar    1  UNL1        0.0068
     13 C         142.4421  142.4379  168.6295 C.ar    1  UNL1        0.0126
     14 C         141.2401  141.7611  168.0402 C.ar    1  UNL1        0.0504
     15 C         140.8515  140.3877  168.5012 C.ar    1  UNL1        0.0170
     16 C         141.6648  139.6911  169.5515 C.ar    1  UNL1        0.0306
     17 C         142.8668  140.3679  170.1407 C.ar    1  UNL1        0.1362
     18 F         143.6802  139.6711  171.1910 F       1  UNL1       -0.2045
     19 S         140.7115  145.0930  161.0196 S.O2    1  UNL1        0.0603
     20 O         141.8666  144.1701  161.2723 O.2     1  UNL1       -0.1530
     21 O         139.5563  146.0158  160.7669 O.2     1  UNL1       -0.1530
     22 N         141.3660  145.5660  159.7555 N.3     1  UNL1       -0.1782
     23 H         142.3147  145.1914  159.7572 H       1  UNL1        0.1488
     24 C         140.7659  145.2196  158.4252 C.3     1  UNL1        0.1075
     25 C         140.4626  146.1837  157.3168 C.3     1  UNL1        0.0520
     26 C         139.8730  145.4081  156.1762 C.3     1  UNL1        0.1437
     27 O         139.8120  143.9646  156.5797 O.3     1  UNL1       -0.3522
     28 C         140.3638  143.8481  157.9696 C.3     1  UNL1        0.1595
@<TRIPOS>BOND
     1    11    12    1
     2    12    13   ar
     3    13    14   ar
     4    14     7    1
     5     7     8   am
     6     8     9    2
     7     8     1    1
     8     1     2   ar
     9     2     3   ar
    10     3     4   ar
    11     4     5   ar
    12     5    19    1
    13    19    20    2
    14    19    21    2
    15    19    22    1
    16    24    22    1
    17    24    25    1
    18    25    26    1
    19    26    27    1
    20    27    28    1
    21     5     6   ar
    22    14    15   ar
    23    15    16   ar
    24    16    17   ar
    25    17    18    1
    26    17    12   ar
    27     6     1   ar
    28    28    24    1
    29     7    10    1
    30    22    23    1
@<TRIPOS>MOLECULE
*****
 28 30 0 0 0
SMALL
GASTEIGER

@<TRIPOS>ATOM
      1 C         139.2779  140.2989  163.9476 C.ar    1  UNL1        0.0550
      2 C         138.7231  138.9325  163.6734 C.ar    1  UNL1        0.0046
      3 C         138.1450  138.6143  162.3263 C.ar    1  UNL1        0.0015
      4 C         138.1217  139.6624  161.2535 C.ar    1  UNL1        0.0199
      5 C         138.6765  141.0288  161.5278 C.ar    1  UNL1        0.1221
      6 C         139.2546  141.3471  162.8748 C.ar    1  UNL1        0.0244
      7 N         140.7001  141.8436  165.4778 N.am    1  UNL1       -0.2804
      8 C         139.8560  140.6171  165.2946 C.2     1  UNL1        0.2495
      9 O         139.5901  139.7090  166.4585 O.2     1  UNL1       -0.2698
     10 H         140.8746  142.4396  164.7140 H       1  UNL1        0.1552
     11 C         140.1346  143.7336  170.2849 C.3     1  UNL1        0.0334
     12 C         140.9954  143.1068  169.2284 C.ar    1  UNL1        0.0068
     13 C         140.4174  142.7886  167.8814 C.ar    1  UNL1        0.0126
     14 C         141.2782  142.1618  166.8249 C.ar    1  UNL1        0.0504
     15 C         142.7170  141.8532  167.1155 C.ar    1  UNL1        0.0170
     16 C         143.2950  142.1714  168.4625 C.ar    1  UNL1        0.0306
     17 C         142.4342  142.7982  169.5190 C.ar    1  UNL1        0.1362
     18 F         143.0124  143.1164  170.8661 F       1  UNL1       -0.2045
     19 S         138.6532  142.0769  160.4550 S.O2    1  UNL1        0.0603
     20 O         137.7359  142.9158  161.2945 O.2     1  UNL1       -0.1530
     21 O         139.5706  141.2381  159.6155 O.2     1  UNL1       -0.1530
     22 N         138.6299  143.1251  159.3822 N.3     1  UNL1       -0.1782
     23 H         137.8400  143.7375  159.5860 H       1  UNL1        0.1488
     24 C         139.8221  144.0112  159.1734 C.3     1  UNL1        0.1075
     25 C         140.3912  144.4259  157.8489 C.3     1  UNL1        0.0520
     26 C         141.5753  145.3091  158.1093 C.3     1  UNL1        0.1437
     27 O         141.7381  145.4402  159.5947 O.3     1  UNL1       -0.3522
     28 C         140.6545  144.6381  160.2523 C.3     1  UNL1        0.1595
@<TRIPOS>BOND
     1    11    12    1
     2    12    13   ar
     3    13    14   ar
     4    14     7    1
     5     7     8   am
     6     8     9    2
     7     8     1    1
     8     1     2   ar
     9     2     3   ar
    10     3     4   ar
    11     4     5   ar
    12     5    19    1
    13    19    20    2
    14    19    21    2
    15    19    22    1
    16    24    22    1
    17    24    25    1
    18    25    26    1
    19    26    27    1
    20    27    28    1
    21     5     6   ar
    22    14    15   ar
    23    15    16   ar
    24    16    17   ar
    25    17    18    1
    26    17    12   ar
    27     6     1   ar
    28    28    24    1
    29     7    10    1
    30    22    23    1
@<TRIPOS>MOLECULE
*****
 28 30 0 0 0
SMALL
GASTEIGER

@<TRIPOS>ATOM
      1 C         142.8431  139.7252  163.3751 C.ar    1  UNL1        0.0550
      2 C         143.5959  138.6527  162.6449 C.ar    1  UNL1        0.0046
      3 C         144.0715  138.8923  161.2426 C.ar    1  UNL1        0.0015
      4 C         143.7942  140.2043  160.5705 C.ar    1  UNL1        0.0199
      5 C         143.0414  141.2767  161.3006 C.ar    1  UNL1        0.1221
      6 C         142.5658  141.0372  162.7029 C.ar    1  UNL1        0.0244
      7 N         141.8777  140.6334  165.6096 N.am    1  UNL1       -0.2804
      8 C         142.3675  139.4856  164.7774 C.2     1  UNL1        0.2495
      9 O         142.3817  138.0982  165.3475 O.2     1  UNL1       -0.2698
     10 H         141.8684  141.5440  165.2355 H       1  UNL1        0.1552
     11 C         142.9133  139.8751  170.6447 C.3     1  UNL1        0.0334
     12 C         141.9200  140.0147  169.5295 C.ar    1  UNL1        0.0068
     13 C         142.3955  140.2543  168.1272 C.ar    1  UNL1        0.0126
     14 C         141.4022  140.3938  167.0119 C.ar    1  UNL1        0.0504
     15 C         139.9333  140.2938  167.2990 C.ar    1  UNL1        0.0170
     16 C         139.4578  140.0542  168.7012 C.ar    1  UNL1        0.0306
     17 C         140.4511  139.9146  169.8165 C.ar    1  UNL1        0.1362
     18 F         139.9756  139.6750  171.2188 F       1  UNL1       -0.2045
     19 S         142.7641  142.5887  160.6285 S.O2    1  UNL1        0.0603
     20 O         144.0918  143.1081  161.0947 O.2     1  UNL1       -0.1530
     21 O         141.4364  142.0693  160.1623 O.2     1  UNL1       -0.1530
     22 N         142.4868  143.9008  159.9564 N.3     1  UNL1       -0.1782
     23 H         142.2709  143.6924  158.9815 H       1  UNL1        0.1488
     24 C         141.3872  144.7858  160.4638 C.3     1  UNL1        0.1075
     25 C         141.1358  145.1454  161.8983 C.3     1  UNL1        0.0520
     26 C         139.9391  146.0484  161.9469 C.3     1  UNL1        0.1437
     27 O         139.4508  146.2470  160.5425 O.3     1  UNL1       -0.3522
     28 C         140.3458  145.4666  159.6260 C.3     1  UNL1        0.1595
@<TRIPOS>BOND
     1    11    12    1
     2    12    13   ar
     3    13    14   ar
     4    14     7    1
     5     7     8   am
     6     8     9    2
     7     8     1    1
     8     1     2   ar
     9     2     3   ar
    10     3     4   ar
    11     4     5   ar
    12     5    19    1
    13    19    20    2
    14    19    21    2
    15    19    22    1
    16    24    22    1
    17    24    25    1
    18    25    26    1
    19    26    27    1
    20    27    28    1
    21     5     6   ar
    22    14    15   ar
    23    15    16   ar
    24    16    17   ar
    25    17    18    1
    26    17    12   ar
    27     6     1   ar
    28    28    24    1
    29     7    10    1
    30    22    23    1
@<TRIPOS>MOLECULE
*****
 28 30 0 0 0
SMALL
GASTEIGER

@<TRIPOS>ATOM
      1 C         140.1292  144.2121  163.4536 C.ar    1  UNL1        0.0550
      2 C         139.4192  145.4509  162.9941 C.ar    1  UNL1        0.0046
      3 C         139.7341  146.0417  161.6517 C.ar    1  UNL1        0.0015
      4 C         140.7591  145.3936  160.7689 C.ar    1  UNL1        0.0199
      5 C         141.4691  144.1547  161.2284 C.ar    1  UNL1        0.1221
      6 C         141.1542  143.5640  162.5706 C.ar    1  UNL1        0.0244
      7 N         140.5214  142.3801  165.2536 N.am    1  UNL1       -0.2804
      8 C         139.8143  143.6213  164.7958 C.2     1  UNL1        0.2495
      9 O         138.7923  144.2717  165.6805 O.2     1  UNL1       -0.2698
     10 H         141.1921  141.9532  164.6730 H       1  UNL1        0.1552
     11 C         140.5464  142.7219  170.4384 C.3     1  UNL1        0.0334
     12 C         140.2189  141.9603  169.1884 C.ar    1  UNL1        0.0068
     13 C         140.5338  142.5510  167.8460 C.ar    1  UNL1        0.0126
     14 C         140.2064  141.7894  166.5960 C.ar    1  UNL1        0.0504
     15 C         139.5640  140.4370  166.6882 C.ar    1  UNL1        0.0170
     16 C         139.2491  139.8464  168.0305 C.ar    1  UNL1        0.0306
     17 C         139.5766  140.6080  169.2806 C.ar    1  UNL1        0.1362
     18 F         139.2616  140.0172  170.6230 F       1  UNL1       -0.2045
     19 S         142.4940  143.5066  160.3455 S.O2    1  UNL1        0.0603
     20 O         141.4193  143.1439  159.3641 O.2     1  UNL1       -0.1530
     21 O         143.5688  143.8694  161.3270 O.2     1  UNL1       -0.1530
     22 N         143.5190  142.8585  159.4626 N.3     1  UNL1       -0.1782
     23 H         144.4290  143.2093  159.7613 H       1  UNL1        0.1488
     24 C         143.6269  141.3633  159.4113 C.3     1  UNL1        0.1075
     25 C         143.5274  140.4314  160.5826 C.3     1  UNL1        0.0520
     26 C         143.6923  139.0296  160.0749 C.3     1  UNL1        0.1437
     27 O         143.8936  139.0950  158.5899 O.3     1  UNL1       -0.3522
     28 C         143.8532  140.5373  158.1798 C.3     1  UNL1        0.1595
@<TRIPOS>BOND
     1    11    12    1
     2    12    13   ar
     3    13    14   ar
     4    14     7    1
     5     7     8   am
     6     8     9    2
     7     8     1    1
     8     1     2   ar
     9     2     3   ar
    10     3     4   ar
    11     4     5   ar
    12     5    19    1
    13    19    20    2
    14    19    21    2
    15    19    22    1
    16    24    22    1
    17    24    25    1
    18    25    26    1
    19    26    27    1
    20    27    28    1
    21     5     6   ar
    22    14    15   ar
    23    15    16   ar
    24    16    17   ar
    25    17    18    1
    26    17    12   ar
    27     6     1   ar
    28    28    24    1
    29     7    10    1
    30    22    23    1
@<TRIPOS>MOLECULE
*****
 28 30 0 0 0
SMALL
GASTEIGER

@<TRIPOS>ATOM
      1 C         143.5767  141.8898  164.3903 C.ar    1  UNL1        0.0550
      2 C         144.8783  141.3830  163.8435 C.ar    1  UNL1        0.0046
      3 C         145.3592  141.8471  162.5006 C.ar    1  UNL1        0.0015
      4 C         144.5386  142.8181  161.7046 C.ar    1  UNL1        0.0199
      5 C         143.2370  143.3249  162.2513 C.ar    1  UNL1        0.1221
      6 C         142.7561  142.8608  163.5942 C.ar    1  UNL1        0.0244
      7 N         142.5164  142.4114  166.7041 N.am    1  UNL1       -0.2804
      8 C         143.0957  141.4257  165.7331 C.2     1  UNL1        0.2495
      9 O         143.1941  139.9759  166.1051 O.2     1  UNL1       -0.2698
     10 H         142.4518  143.3630  166.4600 H       1  UNL1        0.1552
     11 C         138.8215  140.2777  169.6698 C.3     1  UNL1        0.0334
     12 C         140.1880  140.8804  169.5298 C.ar    1  UNL1        0.0068
     13 C         140.6690  141.3446  168.1870 C.ar    1  UNL1        0.0126
     14 C         142.0354  141.9473  168.0470 C.ar    1  UNL1        0.0504
     15 C         142.9208  142.0858  169.2498 C.ar    1  UNL1        0.0170
     16 C         142.4399  141.6217  170.5926 C.ar    1  UNL1        0.0306
     17 C         141.0734  141.0190  170.7326 C.ar    1  UNL1        0.1362
     18 F         140.5925  140.5548  172.0755 F       1  UNL1       -0.2045
     19 S         142.4164  144.2959  161.4553 S.O2    1  UNL1        0.0603
     20 O         143.1213  143.8651  160.2033 O.2     1  UNL1       -0.1530
     21 O         141.7115  144.7266  162.7073 O.2     1  UNL1       -0.1530
     22 N         141.5957  145.2669  160.6591 N.3     1  UNL1       -0.1782
     23 H         142.2417  145.9638  160.2884 H       1  UNL1        0.1488
     24 C         140.7722  144.7816  159.5032 C.3     1  UNL1        0.1075
     25 C         140.7874  145.3435  158.1124 C.3     1  UNL1        0.0520
     26 C         139.8134  144.5584  157.2847 C.3     1  UNL1        0.1437
     27 O         139.1963  143.5114  158.1638 O.3     1  UNL1       -0.3522
     28 C         139.7889  143.6493  159.5349 C.3     1  UNL1        0.1595
@<TRIPOS>BOND
     1    11    12    1
     2    12    13   ar
     3    13    14   ar
     4    14     7    1
     5     7     8   am
     6     8     9    2
     7     8     1    1
     8     1     2   ar
     9     2     3   ar
    10     3     4   ar
    11     4     5   ar
    12     5    19    1
    13    19    20    2
    14    19    21    2
    15    19    22    1
    16    24    22    1
    17    24    25    1
    18    25    26    1
    19    26    27    1
    20    27    28    1
    21     5     6   ar
    22    14    15   ar
    23    15    16   ar
    24    16    17   ar
    25    17    18    1
    26    17    12   ar
    27     6     1   ar
    28    28    24    1
    29     7    10    1
    30    22    23    1
@<TRIPOS>MOLECULE
*****
 28 30 0 0 0
SMALL
GASTEIGER

@<TRIPOS>ATOM
      1 C         141.2105  144.8607  158.6450 C.ar    1  UNL1        0.0550
      2 C         142.2102  144.2131  157.7332 C.ar    1  UNL1        0.0046
      3 C         142.2566  144.5906  156.2821 C.ar    1  UNL1        0.0015
      4 C         141.3033  145.6155  155.7430 C.ar    1  UNL1        0.0199
      5 C         140.3036  146.2630  156.6548 C.ar    1  UNL1        0.1221
      6 C         140.2572  145.8856  158.1057 C.ar    1  UNL1        0.0244
      7 N         139.9155  143.8886  160.6767 N.am    1  UNL1       -0.2804
      8 C         141.1641  144.4832  160.0959 C.2     1  UNL1        0.2495
      9 O         142.3665  144.7005  160.9662 O.2     1  UNL1       -0.2698
     10 H         139.1264  143.7460  160.1055 H       1  UNL1        0.1552
     11 C         138.5760  144.9955  165.5737 C.3     1  UNL1        0.0334
     12 C         139.1994  144.0647  164.5762 C.ar    1  UNL1        0.0068
     13 C         139.2458  144.4420  163.1252 C.ar    1  UNL1        0.0126
     14 C         139.8691  143.5112  162.1278 C.ar    1  UNL1        0.0504
     15 C         140.4462  142.2030  162.5813 C.ar    1  UNL1        0.0170
     16 C         140.3998  141.8257  164.0322 C.ar    1  UNL1        0.0306
     17 C         139.7764  142.7565  165.0297 C.ar    1  UNL1        0.1362
     18 F         139.7301  142.3791  166.4808 F       1  UNL1       -0.2045
     19 S         139.3503  147.2879  156.1156 S.O2    1  UNL1        0.0603
     20 O         138.9559  147.6572  157.5149 O.2     1  UNL1       -0.1530
     21 O         139.7447  146.9186  154.7163 O.2     1  UNL1       -0.1530
     22 N         138.3970  148.3129  155.5764 N.3     1  UNL1       -0.1782
     23 H         137.5973  148.3330  156.2093 H       1  UNL1        0.1488
     24 C         138.8446  149.7336  155.3991 C.3     1  UNL1        0.1075
     25 C         139.5484  150.2929  154.1983 C.3     1  UNL1        0.0520
     26 C         139.8058  151.7493  154.4485 C.3     1  UNL1        0.1437
     27 O         139.2610  152.0901  155.8039 O.3     1  UNL1       -0.3522
     28 C         138.6670  150.8443  156.3914 C.3     1  UNL1        0.1595
@<TRIPOS>BOND
     1    11    12    1
     2    12    13   ar
     3    13    14   ar
     4    14     7    1
     5     7     8   am
     6     8     9    2
     7     8     1    1
     8     1     2   ar
     9     2     3   ar
    10     3     4   ar
    11     4     5   ar
    12     5    19    1
    13    19    20    2
    14    19    21    2
    15    19    22    1
    16    24    22    1
    17    24    25    1
    18    25    26    1
    19    26    27    1
    20    27    28    1
    21     5     6   ar
    22    14    15   ar
    23    15    16   ar
    24    16    17   ar
    25    17    18    1
    26    17    12   ar
    27     6     1   ar
    28    28    24    1
    29     7    10    1
    30    22    23    1
@<TRIPOS>MOLECULE
*****
 28 30 0 0 0
SMALL
GASTEIGER

@<TRIPOS>ATOM
      1 C         138.8385  140.2072  163.4543 C.ar    1  UNL1        0.0550
      2 C         138.8430  138.7949  162.9490 C.ar    1  UNL1        0.0046
      3 C         138.8497  137.6512  163.9196 C.ar    1  UNL1        0.0015
      4 C         138.8519  137.9198  165.3953 C.ar    1  UNL1        0.0199
      5 C         138.8474  139.3322  165.9006 C.ar    1  UNL1        0.1221
      6 C         138.8406  140.4759  164.9301 C.ar    1  UNL1        0.0244
      7 N         140.1133  141.8036  161.8492 N.am    1  UNL1       -0.2804
      8 C         138.8318  141.3509  162.4838 C.2     1  UNL1        0.2495
      9 O         137.5434  142.0420  162.1478 O.2     1  UNL1       -0.2698
     10 H         140.9588  141.3501  162.0697 H       1  UNL1        0.1552
     11 C         139.5858  143.5843  156.9963 C.3     1  UNL1        0.0334
     12 C         139.8428  143.8377  158.4522 C.ar    1  UNL1        0.0068
     13 C         139.8495  142.6940  159.4227 C.ar    1  UNL1        0.0126
     14 C         140.1065  142.9474  160.8787 C.ar    1  UNL1        0.0504
     15 C         140.3568  144.3444  161.3641 C.ar    1  UNL1        0.0170
     16 C         140.3500  145.4880  160.3935 C.ar    1  UNL1        0.0306
     17 C         140.0930  145.2347  158.9376 C.ar    1  UNL1        0.1362
     18 F         140.0862  146.3784  157.9671 F       1  UNL1       -0.2045
     19 S         138.8495  139.6009  167.3763 S.O2    1  UNL1        0.0603
     20 O         137.9494  138.4207  167.5925 O.2     1  UNL1       -0.1530
     21 O         139.7497  140.7810  167.1601 O.2     1  UNL1       -0.1530
     22 N         138.8517  139.8695  168.8521 N.3     1  UNL1       -0.1782
     23 H         138.5324  139.0145  169.3075 H       1  UNL1        0.1488
     24 C         140.1216  140.2774  169.5383 C.3     1  UNL1        0.1075
     25 C         141.4091  139.5074  169.5406 C.3     1  UNL1        0.0520
     26 C         142.4102  140.2810  170.3464 C.3     1  UNL1        0.1437
     27 O         141.7416  141.5290  170.8421 O.3     1  UNL1       -0.3522
     28 C         140.3272  141.5267  170.3426 C.3     1  UNL1        0.1595
@<TRIPOS>BOND
     1    11    12    1
     2    12    13   ar
     3    13    14   ar
     4    14     7    1
     5     7     8   am
     6     8     9    2
     7     8     1    1
     8     1     2   ar
     9     2     3   ar
    10     3     4   ar
    11     4     5   ar
    12     5    19    1
    13    19    20    2
    14    19    21    2
    15    19    22    1
    16    24    22    1
    17    24    25    1
    18    25    26    1
    19    26    27    1
    20    27    28    1
    21     5     6   ar
    22    14    15   ar
    23    15    16   ar
    24    16    17   ar
    25    17    18    1
    26    17    12   ar
    27     6     1   ar
    28    28    24    1
    29     7    10    1
    30    22    23    1
@<TRIPOS>MOLECULE
*****
 28 30 0 0 0
SMALL
GASTEIGER

@<TRIPOS>ATOM
      1 C         143.4894  135.4898  156.3480 C.ar    1  UNL1        0.0550
      2 C         144.1915  136.2088  155.2344 C.ar    1  UNL1        0.0046
      3 C         144.2220  137.7084  155.2115 C.ar    1  UNL1        0.0015
      4 C         143.5503  138.4889  156.3022 C.ar    1  UNL1        0.0199
      5 C         142.8482  137.7699  157.4157 C.ar    1  UNL1        0.1221
      6 C         142.8177  136.2705  157.4387 C.ar    1  UNL1        0.0244
      7 N         144.7145  133.2189  156.6506 N.am    1  UNL1       -0.2804
      8 C         143.4589  133.9904  156.3709 C.2     1  UNL1        0.2495
      9 O         142.1728  133.2623  156.1141 O.2     1  UNL1       -0.2698
     10 H         145.5586  133.6967  156.8191 H       1  UNL1        0.1552
     11 C         144.2888  128.7665  159.2955 C.3     1  UNL1        0.0334
     12 C         144.4712  129.4932  157.9960 C.ar    1  UNL1        0.0068
     13 C         144.5017  130.9927  157.9730 C.ar    1  UNL1        0.0126
     14 C         144.6840  131.7193  156.6735 C.ar    1  UNL1        0.0504
     15 C         144.8358  130.9465  155.3970 C.ar    1  UNL1        0.0170
     16 C         144.8052  129.4470  155.4199 C.ar    1  UNL1        0.0306
     17 C         144.6229  128.7203  156.7195 C.ar    1  UNL1        0.1362
     18 F         144.5924  127.2208  156.7424 F       1  UNL1       -0.2045
     19 S         142.1765  138.5505  158.5064 S.O2    1  UNL1        0.0603
     20 O         140.8430  138.2922  157.8700 O.2     1  UNL1       -0.1530
     21 O         143.5100  138.8087  159.1428 O.2     1  UNL1       -0.1530
     22 N         141.5047  139.3310  159.5971 N.3     1  UNL1       -0.1782
     23 H         140.7623  139.8741  159.1562 H       1  UNL1        0.1488
     24 C         140.8848  138.6141  160.7598 C.3     1  UNL1        0.1075
     25 C         139.4245  138.5868  161.1018 C.3     1  UNL1        0.0520
     26 C         139.2536  137.7545  162.3380 C.3     1  UNL1        0.1437
     27 O         140.6081  137.2675  162.7599 O.3     1  UNL1       -0.3522
     28 C         141.6162  137.7988  161.7846 C.3     1  UNL1        0.1595
@<TRIPOS>BOND
     1    11    12    1
     2    12    13   ar
     3    13    14   ar
     4    14     7    1
     5     7     8   am
     6     8     9    2
     7     8     1    1
     8     1     2   ar
     9     2     3   ar
    10     3     4   ar
    11     4     5   ar
    12     5    19    1
    13    19    20    2
    14    19    21    2
    15    19    22    1
    16    24    22    1
    17    24    25    1
    18    25    26    1
    19    26    27    1
    20    27    28    1
    21     5     6   ar
    22    14    15   ar
    23    15    16   ar
    24    16    17   ar
    25    17    18    1
    26    17    12   ar
    27     6     1   ar
    28    28    24    1
    29     7    10    1
    30    22    23    1
@<TRIPOS>MOLECULE
*****
 28 30 0 0 0
SMALL
GASTEIGER

@<TRIPOS>ATOM
      1 C         140.0643  139.0289  160.4337 C.ar    1  UNL1        0.0550
      2 C         138.9861  139.7597  159.6898 C.ar    1  UNL1        0.0046
      3 C         139.0180  139.8209  158.1913 C.ar    1  UNL1        0.0015
      4 C         140.1281  139.1512  157.4368 C.ar    1  UNL1        0.0199
      5 C         141.2063  138.4204  158.1807 C.ar    1  UNL1        0.1221
      6 C         141.1744  138.3593  159.6791 C.ar    1  UNL1        0.0244
      7 N         139.4215  140.0914  162.7157 N.am    1  UNL1       -0.2804
      8 C         140.0325  138.9678  161.9321 C.2     1  UNL1        0.2495
      9 O         140.6116  137.7829  162.6468 O.2     1  UNL1       -0.2698
     10 H         139.0414  140.8690  162.2466 H       1  UNL1        0.1552
     11 C         137.4106  138.1558  167.0987 C.3     1  UNL1        0.0334
     12 C         138.3842  139.0624  166.4056 C.ar    1  UNL1        0.0068
     13 C         138.4161  139.1236  164.9073 C.ar    1  UNL1        0.0126
     14 C         139.3896  140.0302  164.2142 C.ar    1  UNL1        0.0504
     15 C         140.3313  140.8755  165.0195 C.ar    1  UNL1        0.0170
     16 C         140.2994  140.8143  166.5179 C.ar    1  UNL1        0.0306
     17 C         139.3259  139.9077  167.2110 C.ar    1  UNL1        0.1362
     18 F         139.2940  139.8465  168.7094 F       1  UNL1       -0.2045
     19 S         142.3164  137.7508  157.4263 S.O2    1  UNL1        0.0603
     20 O         143.2982  138.2105  158.4628 O.2     1  UNL1       -0.1530
     21 O         141.3345  137.2910  156.3897 O.2     1  UNL1       -0.1530
     22 N         143.4265  137.0811  156.6718 N.3     1  UNL1       -0.1782
     23 H         144.2931  137.3088  157.1593 H       1  UNL1        0.1488
     24 C         143.4140  135.5931  156.4830 C.3     1  UNL1        0.1075
     25 C         143.3793  134.8714  155.1684 C.3     1  UNL1        0.0520
     26 C         143.3778  133.3977  155.4487 C.3     1  UNL1        0.1437
     27 O         143.4117  133.2087  156.9363 O.3     1  UNL1       -0.3522
     28 C         143.4340  134.5655  157.5756 C.3     1  UNL1        0.1595
@<TRIPOS>BOND
     1    11    12    1
     2    12    13   ar
     3    13    14   ar
     4    14     7    1
     5     7     8   am
     6     8     9    2
     7     8     1    1
     8     1     2   ar
     9     2     3   ar
    10     3     4   ar
    11     4     5   ar
    12     5    19    1
    13    19    20    2
    14    19    21    2
    15    19    22    1
    16    24    22    1
    17    24    25    1
    18    25    26    1
    19    26    27    1
    20    27    28    1
    21     5     6   ar
    22    14    15   ar
    23    15    16   ar
    24    16    17   ar
    25    17    18    1
    26    17    12   ar
    27     6     1   ar
    28    28    24    1
    29     7    10    1
    30    22    23    1
