@<TRIPOS>MOLECULE
*****
 34 38 0 0 0
SMALL
GASTEIGER

@<TRIPOS>ATOM
      1 C         139.9974  145.8776  161.1282 C.3     1  UNL1        0.0730
      2 C         141.6902  140.2653  168.8468 C.ar    1  UNL1        0.2057
      3 N         142.7231  141.0127  168.0565 N.ar    1  UNL1       -0.2121
      4 C         142.0206  141.7483  166.9542 C.ar    1  UNL1        0.1182
      5 C         142.5273  142.6469  165.8652 C.ar    1  UNL1        0.0178
      6 C         141.5668  143.2527  164.8851 C.ar    1  UNL1       -0.0230
      7 C         140.0998  142.9600  164.9940 C.ar    1  UNL1       -0.0216
      8 C         139.5931  142.0614  166.0829 C.ar    1  UNL1        0.0346
      9 C         140.5535  141.4556  167.0631 C.ar    1  UNL1        0.1640
     10 O         140.3493  140.5391  168.2328 O.2     1  UNL1       -0.4384
     11 C         138.9802  143.4565  164.1280 C.3     1  UNL1        0.0434
     12 C         139.0513  144.3685  162.9391 C.3     1  UNL1        0.0768
     13 N         140.2594  145.0090  162.3227 N.3     1  UNL1       -0.2720
     14 C         141.6949  144.8959  162.7429 C.3     1  UNL1        0.0768
     15 C         142.2768  144.1143  163.8832 C.3     1  UNL1        0.0434
     16 C         142.9766  138.3038  169.9638 C.3     1  UNL1        0.0102
     17 C         141.9522  139.3968  170.0414 C.3     1  UNL1        0.0853
     18 C         140.5722  145.5092  159.7924 C.3     1  UNL1        0.0294
     19 C         140.1405  144.2433  159.1134 C.3     1  UNL1        0.0666
     20 S         140.9809  143.0063  159.2286 S.3     1  UNL1       -0.0756
     21 C         140.7773  142.0657  160.3792 C.ar    1  UNL1        0.1932
     22 N         139.4652  141.4962  160.8309 N.ar    1  UNL1       -0.1221
     23 N         139.7269  140.6080  162.0110 N.ar    1  UNL1       -0.1282
     24 C         141.2008  140.6286  162.2886 C.ar    1  UNL1        0.1669
     25 N         141.8500  141.5295  161.2801 N.ar    1  UNL1       -0.2884
     26 C         143.3148  141.8397  161.1887 C.3     1  UNL1        0.1340
     27 C         141.9024  139.8798  163.3827 C.ar    1  UNL1        0.0383
     28 C         141.1077  139.0901  164.3801 C.ar    1  UNL1        0.0055
     29 C         141.8093  138.3412  165.4742 C.ar    1  UNL1        0.0321
     30 C         143.3056  138.3820  165.5709 C.ar    1  UNL1        0.1674
     31 F         144.0072  137.6332  166.6649 F       1  UNL1       -0.2018
     32 C         144.1003  139.1717  164.5735 C.ar    1  UNL1        0.1675
     33 F         145.5966  139.2126  164.6701 F       1  UNL1       -0.2018
     34 C         143.3987  139.9206  163.4794 C.ar    1  UNL1        0.0350
@<TRIPOS>BOND
     1    16    17    1
     2    17     2    1
     3     2     3   ar
     4     3     4   ar
     5     4     5   ar
     6     5     6   ar
     7     6     7   ar
     8     7     8   ar
     9     8     9   ar
    10     9    10   ar
    11     7    11    1
    12    11    12    1
    13    12    13    1
    14    13     1    1
    15     1    18    1
    16    18    19    1
    17    19    20    1
    18    20    21    1
    19    21    22   ar
    20    22    23   ar
    21    23    24   ar
    22    24    27    1
    23    27    28   ar
    24    28    29   ar
    25    29    30   ar
    26    30    31    1
    27    30    32   ar
    28    32    33    1
    29    32    34   ar
    30    24    25   ar
    31    25    26    1
    32    13    14    1
    33    14    15    1
    34    10     2   ar
    35    25    21   ar
    36     9     4   ar
    37    34    27   ar
    38    15     6    1
@<TRIPOS>MOLECULE
*****
 34 38 0 0 0
SMALL
GASTEIGER

@<TRIPOS>ATOM
      1 C         140.8546  145.4351  160.1321 C.3     1  UNL1        0.0730
      2 C         141.0976  140.6084  168.5335 C.ar    1  UNL1        0.2057
      3 N         141.8858  140.2745  167.3017 N.ar    1  UNL1       -0.2121
      4 C         141.5405  141.2801  166.2438 C.ar    1  UNL1        0.1182
      5 C         142.0087  141.4493  164.8287 C.ar    1  UNL1        0.0178
      6 C         141.4753  142.5740  163.9917 C.ar    1  UNL1       -0.0230
      7 C         140.4739  143.5294  164.5695 C.ar    1  UNL1       -0.0216
      8 C         140.0056  143.3603  165.9845 C.ar    1  UNL1        0.0346
      9 C         140.5389  142.2356  166.8216 C.ar    1  UNL1        0.1640
     10 O         140.2652  141.8204  168.2368 O.2     1  UNL1       -0.4384
     11 C         139.8200  144.7092  163.9133 C.3     1  UNL1        0.0434
     12 C         140.0062  145.2248  162.5170 C.3     1  UNL1        0.0768
     13 N         140.8922  144.6881  161.4323 N.3     1  UNL1       -0.2720
     14 C         141.8109  143.5031  161.4757 C.3     1  UNL1        0.0768
     15 C         142.0704  142.5622  162.6148 C.3     1  UNL1        0.0434
     16 C         139.9438  139.8815  170.7450 C.3     1  UNL1        0.0102
     17 C         141.1352  139.8614  169.8338 C.3     1  UNL1        0.0853
     18 C         141.1212  144.7133  158.8444 C.3     1  UNL1        0.0294
     19 C         139.9821  144.1305  158.0615 C.3     1  UNL1        0.0666
     20 S         139.5606  142.7101  158.2952 S.3     1  UNL1       -0.0756
     21 C         139.0066  142.3017  159.6280 C.ar    1  UNL1        0.1932
     22 N         137.9882  143.0579  160.4286 N.ar    1  UNL1       -0.1221
     23 N         137.7259  142.2891  161.6896 N.ar    1  UNL1       -0.1282
     24 C         138.5822  141.0577  161.6682 C.ar    1  UNL1        0.1669
     25 N         139.3737  141.0655  160.3940 N.ar    1  UNL1       -0.2884
     26 C         140.3593  140.0205  159.9619 C.3     1  UNL1        0.1340
     27 C         138.6374  140.0035  162.7339 C.ar    1  UNL1        0.0383
     28 C         138.8593  138.5683  162.3585 C.ar    1  UNL1        0.0055
     29 C         138.9144  137.5142  163.4242 C.ar    1  UNL1        0.0321
     30 C         138.7476  137.8951  164.8653 C.ar    1  UNL1        0.1674
     31 F         138.8028  136.8410  165.9310 F       1  UNL1       -0.2018
     32 C         138.5257  139.3303  165.2408 C.ar    1  UNL1        0.1675
     33 F         138.3589  139.7114  166.6819 F       1  UNL1       -0.2018
     34 C         138.4706  140.3845  164.1751 C.ar    1  UNL1        0.0350
@<TRIPOS>BOND
     1    16    17    1
     2    17     2    1
     3     2     3   ar
     4     3     4   ar
     5     4     5   ar
     6     5     6   ar
     7     6     7   ar
     8     7     8   ar
     9     8     9   ar
    10     9    10   ar
    11     7    11    1
    12    11    12    1
    13    12    13    1
    14    13     1    1
    15     1    18    1
    16    18    19    1
    17    19    20    1
    18    20    21    1
    19    21    22   ar
    20    22    23   ar
    21    23    24   ar
    22    24    27    1
    23    27    28   ar
    24    28    29   ar
    25    29    30   ar
    26    30    31    1
    27    30    32   ar
    28    32    33    1
    29    32    34   ar
    30    24    25   ar
    31    25    26    1
    32    13    14    1
    33    14    15    1
    34    10     2   ar
    35    25    21   ar
    36     9     4   ar
    37    34    27   ar
    38    15     6    1
@<TRIPOS>MOLECULE
*****
 34 38 0 0 0
SMALL
GASTEIGER

@<TRIPOS>ATOM
      1 C         140.1845  145.7330  161.2407 C.3     1  UNL1        0.0730
      2 C         142.3411  140.5656  169.1519 C.ar    1  UNL1        0.2057
      3 N         140.9618  140.8926  168.6612 N.ar    1  UNL1       -0.2121
      4 C         141.0963  141.7078  167.4094 C.ar    1  UNL1        0.1182
      5 C         140.0760  142.3119  166.4906 C.ar    1  UNL1        0.0178
      6 C         140.5182  143.0930  165.2887 C.ar    1  UNL1       -0.0230
      7 C         141.9805  143.2698  165.0056 C.ar    1  UNL1       -0.0216
      8 C         143.0008  142.6657  165.9243 C.ar    1  UNL1        0.0346
      9 C         142.5587  141.8847  167.1263 C.ar    1  UNL1        0.1640
     10 O         143.3280  141.1787  168.2032 O.2     1  UNL1       -0.4384
     11 C         142.6315  144.0054  163.8718 C.3     1  UNL1        0.0434
     12 C         141.9806  144.7457  162.7411 C.3     1  UNL1        0.0768
     13 N         140.5183  144.9333  162.4650 N.3     1  UNL1       -0.2720
     14 C         139.3455  144.4269  163.2513 C.3     1  UNL1        0.0768
     15 C         139.3455  143.6079  164.5080 C.3     1  UNL1        0.0434
     16 C         142.8592  138.2807  170.2748 C.3     1  UNL1        0.0102
     17 C         142.6748  139.7659  170.3763 C.3     1  UNL1        0.0853
     18 C         140.8714  145.4361  159.9406 C.3     1  UNL1        0.0294
     19 C         140.2046  144.5584  158.9233 C.3     1  UNL1        0.0666
     20 S         140.5170  143.0921  158.8778 S.3     1  UNL1       -0.0756
     21 C         140.3559  142.2523  160.1103 C.ar    1  UNL1        0.1932
     22 N         139.0548  141.8411  160.7331 N.ar    1  UNL1       -0.1221
     23 N         139.3624  141.0110  161.9440 N.ar    1  UNL1       -0.1282
     24 C         140.8536  140.9092  162.0696 C.ar    1  UNL1        0.1669
     25 N         141.4677  141.6764  160.9362 N.ar    1  UNL1       -0.2884
     26 C         142.9358  141.8391  160.6749 C.3     1  UNL1        0.1340
     27 C         141.5998  140.1701  163.1404 C.ar    1  UNL1        0.0383
     28 C         140.8461  139.4416  164.2134 C.ar    1  UNL1        0.0055
     29 C         141.5923  138.7025  165.2843 C.ar    1  UNL1        0.0321
     30 C         143.0922  138.6917  165.2823 C.ar    1  UNL1        0.1674
     31 F         143.8384  137.9525  166.3532 F       1  UNL1       -0.2018
     32 C         143.8460  139.4201  164.2093 C.ar    1  UNL1        0.1675
     33 F         145.3459  139.4094  164.2072 F       1  UNL1       -0.2018
     34 C         143.0998  140.1593  163.1384 C.ar    1  UNL1        0.0350
@<TRIPOS>BOND
     1    16    17    1
     2    17     2    1
     3     2     3   ar
     4     3     4   ar
     5     4     5   ar
     6     5     6   ar
     7     6     7   ar
     8     7     8   ar
     9     8     9   ar
    10     9    10   ar
    11     7    11    1
    12    11    12    1
    13    12    13    1
    14    13     1    1
    15     1    18    1
    16    18    19    1
    17    19    20    1
    18    20    21    1
    19    21    22   ar
    20    22    23   ar
    21    23    24   ar
    22    24    27    1
    23    27    28   ar
    24    28    29   ar
    25    29    30   ar
    26    30    31    1
    27    30    32   ar
    28    32    33    1
    29    32    34   ar
    30    24    25   ar
    31    25    26    1
    32    13    14    1
    33    14    15    1
    34    10     2   ar
    35    25    21   ar
    36     9     4   ar
    37    34    27   ar
    38    15     6    1
@<TRIPOS>MOLECULE
*****
 34 38 0 0 0
SMALL
GASTEIGER

@<TRIPOS>ATOM
      1 C         143.7048  137.7476  160.8476 C.3     1  UNL1        0.0730
      2 C         140.5780  141.2156  169.3410 C.ar    1  UNL1        0.2057
      3 N         139.8272  140.2800  168.4404 N.ar    1  UNL1       -0.2121
      4 C         140.6828  140.0065  167.2392 C.ar    1  UNL1        0.1182
      5 C         140.4621  139.1584  166.0218 C.ar    1  UNL1        0.0178
      6 C         141.5210  139.0768  164.9625 C.ar    1  UNL1       -0.0230
      7 C         142.8006  139.8433  165.1206 C.ar    1  UNL1       -0.0216
      8 C         143.0214  140.6913  166.3380 C.ar    1  UNL1        0.0346
      9 C         141.9625  140.7730  167.3973 C.ar    1  UNL1        0.1640
     10 O         141.8977  141.5202  168.6963 O.2     1  UNL1       -0.4384
     11 C         143.9768  139.9016  164.1915 C.3     1  UNL1        0.0434
     12 C         144.1638  139.2077  162.8748 C.3     1  UNL1        0.0768
     13 N         143.2209  138.2843  162.1621 N.3     1  UNL1       -0.2720
     14 C         141.8580  137.8266  162.5899 C.3     1  UNL1        0.0768
     15 C         141.1015  138.1793  163.8362 C.3     1  UNL1        0.0434
     16 C         139.6911  143.1923  170.7749 C.3     1  UNL1        0.0102
     17 C         140.0941  141.7524  170.6554 C.3     1  UNL1        0.0853
     18 C         142.7578  137.6325  159.6900 C.3     1  UNL1        0.0294
     19 C         142.3840  138.8532  158.9025 C.3     1  UNL1        0.0666
     20 S         140.9400  139.2179  158.7244 S.3     1  UNL1       -0.0756
     21 C         140.1203  139.6354  159.9092 C.ar    1  UNL1        0.1932
     22 N         139.0397  138.8262  160.5630 N.ar    1  UNL1       -0.1221
     23 N         138.4888  139.6261  161.7061 N.ar    1  UNL1       -0.1282
     24 C         139.2290  140.9297  161.7588 C.ar    1  UNL1        0.1669
     25 N         140.2374  140.9355  160.6482 N.ar    1  UNL1       -0.2884
     26 C         141.1946  142.0463  160.3323 C.3     1  UNL1        0.1340
     27 C         139.0009  142.0338  162.7483 C.ar    1  UNL1        0.0383
     28 C         137.9431  143.0655  162.4903 C.ar    1  UNL1        0.0055
     29 C         137.7150  144.1695  163.4797 C.ar    1  UNL1        0.0321
     30 C         138.5447  144.2419  164.7272 C.ar    1  UNL1        0.1674
     31 F         138.3166  145.3459  165.7167 F       1  UNL1       -0.2018
     32 C         139.6025  143.2102  164.9852 C.ar    1  UNL1        0.1675
     33 F         140.4323  143.2825  166.2327 F       1  UNL1       -0.2018
     34 C         139.8306  142.1062  163.9958 C.ar    1  UNL1        0.0350
@<TRIPOS>BOND
     1    16    17    1
     2    17     2    1
     3     2     3   ar
     4     3     4   ar
     5     4     5   ar
     6     5     6   ar
     7     6     7   ar
     8     7     8   ar
     9     8     9   ar
    10     9    10   ar
    11     7    11    1
    12    11    12    1
    13    12    13    1
    14    13     1    1
    15     1    18    1
    16    18    19    1
    17    19    20    1
    18    20    21    1
    19    21    22   ar
    20    22    23   ar
    21    23    24   ar
    22    24    27    1
    23    27    28   ar
    24    28    29   ar
    25    29    30   ar
    26    30    31    1
    27    30    32   ar
    28    32    33    1
    29    32    34   ar
    30    24    25   ar
    31    25    26    1
    32    13    14    1
    33    14    15    1
    34    10     2   ar
    35    25    21   ar
    36     9     4   ar
    37    34    27   ar
    38    15     6    1
@<TRIPOS>MOLECULE
*****
 34 38 0 0 0
SMALL
GASTEIGER

@<TRIPOS>ATOM
      1 C         137.7666  140.2038  160.1594 C.3     1  UNL1        0.0730
      2 C         140.2566  141.0997  169.4834 C.ar    1  UNL1        0.2057
      3 N         139.7954  139.8406  168.8110 N.ar    1  UNL1       -0.2121
      4 C         139.5186  140.1586  167.3715 C.ar    1  UNL1        0.1182
      5 C         139.0398  139.3107  166.2304 C.ar    1  UNL1        0.0178
      6 C         138.8511  139.9185  164.8721 C.ar    1  UNL1       -0.0230
      7 C         139.1411  141.3739  164.6548 C.ar    1  UNL1       -0.0216
      8 C         139.6198  142.2218  165.7958 C.ar    1  UNL1        0.0346
      9 C         139.8086  141.6141  167.1542 C.ar    1  UNL1        0.1640
     10 O         140.2647  142.1957  168.4594 O.2     1  UNL1       -0.4384
     11 C         139.0206  142.1731  163.3911 C.3     1  UNL1        0.0434
     12 C         138.5804  141.7140  162.0326 C.3     1  UNL1        0.0768
     13 N         138.1519  140.3425  161.6024 N.3     1  UNL1       -0.2720
     14 C         138.0578  139.0912  162.4242 C.3     1  UNL1        0.0768
     15 C         138.3690  138.9025  163.8794 C.3     1  UNL1        0.0434
     16 C         142.0838  141.4046  171.3050 C.3     1  UNL1        0.0102
     17 C         140.6419  141.2383  170.9264 C.3     1  UNL1        0.0853
     18 C         138.8248  140.2123  159.0962 C.3     1  UNL1        0.0294
     19 C         139.5458  138.9445  158.7455 C.3     1  UNL1        0.0666
     20 S         140.9743  138.7544  159.1616 S.3     1  UNL1       -0.0756
     21 C         141.3329  138.7184  160.6177 C.ar    1  UNL1        0.1932
     22 N         141.3323  137.5024  161.4960 N.ar    1  UNL1       -0.1221
     23 N         141.7541  137.9244  162.8722 N.ar    1  UNL1       -0.1282
     24 C         142.0154  139.4012  162.8444 C.ar    1  UNL1        0.1669
     25 N         141.7550  139.8920  161.4510 N.ar    1  UNL1       -0.2884
     26 C         141.8927  141.3077  160.9748 C.3     1  UNL1        0.1340
     27 C         142.4590  140.2401  164.0061 C.ar    1  UNL1        0.0383
     28 C         142.7978  141.6868  163.8005 C.ar    1  UNL1        0.0055
     29 C         143.2414  142.5257  164.9621 C.ar    1  UNL1        0.0321
     30 C         143.3464  141.9179  166.3294 C.ar    1  UNL1        0.1674
     31 F         143.7901  142.7567  167.4911 F       1  UNL1       -0.2018
     32 C         143.0077  140.4712  166.5350 C.ar    1  UNL1        0.1675
     33 F         143.1126  139.8633  167.9023 F       1  UNL1       -0.2018
     34 C         142.5640  139.6323  165.3734 C.ar    1  UNL1        0.0350
@<TRIPOS>BOND
     1    16    17    1
     2    17     2    1
     3     2     3   ar
     4     3     4   ar
     5     4     5   ar
     6     5     6   ar
     7     6     7   ar
     8     7     8   ar
     9     8     9   ar
    10     9    10   ar
    11     7    11    1
    12    11    12    1
    13    12    13    1
    14    13     1    1
    15     1    18    1
    16    18    19    1
    17    19    20    1
    18    20    21    1
    19    21    22   ar
    20    22    23   ar
    21    23    24   ar
    22    24    27    1
    23    27    28   ar
    24    28    29   ar
    25    29    30   ar
    26    30    31    1
    27    30    32   ar
    28    32    33    1
    29    32    34   ar
    30    24    25   ar
    31    25    26    1
    32    13    14    1
    33    14    15    1
    34    10     2   ar
    35    25    21   ar
    36     9     4   ar
    37    34    27   ar
    38    15     6    1
@<TRIPOS>MOLECULE
*****
 34 38 0 0 0
SMALL
GASTEIGER

@<TRIPOS>ATOM
      1 C         144.7983  142.4018  160.0528 C.3     1  UNL1        0.0730
      2 C         140.2868  141.2775  168.5571 C.ar    1  UNL1        0.2057
      3 N         141.1889  140.2763  167.8983 N.ar    1  UNL1       -0.2121
      4 C         141.6651  140.8633  166.6027 C.ar    1  UNL1        0.1182
      5 C         142.5736  140.3319  165.5339 C.ar    1  UNL1        0.0178
      6 C         142.8744  141.1647  164.3231 C.ar    1  UNL1       -0.0230
      7 C         142.2667  142.5286  164.1811 C.ar    1  UNL1       -0.0216
      8 C         141.3582  143.0599  165.2498 C.ar    1  UNL1        0.0346
      9 C         141.0574  142.2273  166.4607 C.ar    1  UNL1        0.1640
     10 O         140.2056  142.4832  167.6685 O.2     1  UNL1       -0.4384
     11 C         142.4337  143.5151  163.0635 C.3     1  UNL1        0.0434
     12 C         143.2497  143.3812  161.8119 C.3     1  UNL1        0.0768
     13 N         144.1001  142.2278  161.3689 N.3     1  UNL1       -0.2720
     14 C         144.3447  140.9234  162.0679 C.3     1  UNL1        0.0768
     15 C         143.7992  140.4502  163.3827 C.3     1  UNL1        0.0434
     16 C         138.4748  140.1075  170.0054 C.3     1  UNL1        0.0102
     17 C         139.5886  141.1035  169.8732 C.3     1  UNL1        0.0853
     18 C         144.1051  142.0172  158.7793 C.3     1  UNL1        0.0294
     19 C         143.8557  140.5711  158.4682 C.3     1  UNL1        0.0666
     20 S         142.4664  140.0132  158.5594 S.3     1  UNL1       -0.0756
     21 C         142.0295  139.2871  159.7972 C.ar    1  UNL1        0.1932
     22 N         142.4612  137.9115  160.2111 N.ar    1  UNL1       -0.1221
     23 N         141.7828  137.5833  161.5080 N.ar    1  UNL1       -0.1282
     24 C         140.9318  138.7561  161.8956 C.ar    1  UNL1        0.1669
     25 N         141.0843  139.8092  160.8383 N.ar    1  UNL1       -0.2884
     26 C         140.4099  141.1489  160.8245 C.3     1  UNL1        0.1340
     27 C         140.0782  138.8581  163.1248 C.ar    1  UNL1        0.0383
     28 C         139.8856  137.6594  164.0058 C.ar    1  UNL1        0.0055
     29 C         139.0320  137.7614  165.2350 C.ar    1  UNL1        0.0321
     30 C         138.3709  139.0619  165.5833 C.ar    1  UNL1        0.1674
     31 F         137.5173  139.1639  166.8125 F       1  UNL1       -0.2018
     32 C         138.5634  140.2606  164.7023 C.ar    1  UNL1        0.1675
     33 F         137.9023  141.5612  165.0505 F       1  UNL1       -0.2018
     34 C         139.4170  140.1587  163.4731 C.ar    1  UNL1        0.0350
@<TRIPOS>BOND
     1    16    17    1
     2    17     2    1
     3     2     3   ar
     4     3     4   ar
     5     4     5   ar
     6     5     6   ar
     7     6     7   ar
     8     7     8   ar
     9     8     9   ar
    10     9    10   ar
    11     7    11    1
    12    11    12    1
    13    12    13    1
    14    13     1    1
    15     1    18    1
    16    18    19    1
    17    19    20    1
    18    20    21    1
    19    21    22   ar
    20    22    23   ar
    21    23    24   ar
    22    24    27    1
    23    27    28   ar
    24    28    29   ar
    25    29    30   ar
    26    30    31    1
    27    30    32   ar
    28    32    33    1
    29    32    34   ar
    30    24    25   ar
    31    25    26    1
    32    13    14    1
    33    14    15    1
    34    10     2   ar
    35    25    21   ar
    36     9     4   ar
    37    34    27   ar
    38    15     6    1
@<TRIPOS>MOLECULE
*****
 34 38 0 0 0
SMALL
GASTEIGER

@<TRIPOS>ATOM
      1 C         142.9513  138.7366  159.0422 C.3     1  UNL1        0.0730
      2 C         142.8605  141.2223  168.4099 C.ar    1  UNL1        0.2057
      3 N         142.6210  139.8474  167.8601 N.ar    1  UNL1       -0.2121
      4 C         142.7290  139.9204  166.3658 C.ar    1  UNL1        0.1182
      5 C         142.5880  138.8772  165.2972 C.ar    1  UNL1        0.0178
      6 C         142.7533  139.2541  163.8547 C.ar    1  UNL1       -0.0230
      7 C         143.0596  140.6740  163.4809 C.ar    1  UNL1       -0.0216
      8 C         143.2005  141.7172  164.5495 C.ar    1  UNL1        0.0346
      9 C         143.0352  141.3404  165.9920 C.ar    1  UNL1        0.1640
     10 O         143.1165  142.1450  167.2553 O.2     1  UNL1       -0.4384
     11 C         143.2615  141.2587  162.1143 C.3     1  UNL1        0.0434
     12 C         143.2070  140.5676  160.7841 C.3     1  UNL1        0.0768
     13 N         142.9372  139.1213  160.4919 N.3     1  UNL1       -0.2720
     14 C         142.6552  138.0088  161.4577 C.3     1  UNL1        0.0768
     15 C         142.5734  138.0679  162.9543 C.3     1  UNL1        0.0434
     16 C         142.4320  142.9907  170.2644 C.3     1  UNL1        0.0102
     17 C         142.8464  141.6071  169.8596 C.3     1  UNL1        0.0853
     18 C         141.6845  138.2950  158.3710 C.3     1  UNL1        0.0294
     19 C         140.8257  139.2961  157.6568 C.3     1  UNL1        0.0666
     20 S         139.5542  139.7797  158.2885 S.3     1  UNL1       -0.0756
     21 C         139.5770  140.3587  159.6721 C.ar    1  UNL1        0.1932
     22 N         139.8451  141.7920  160.0237 N.ar    1  UNL1       -0.1221
     23 N         139.7697  141.9252  161.5159 N.ar    1  UNL1       -0.1282
     24 C         139.4549  140.5742  162.0865 C.ar    1  UNL1        0.1669
     25 N         139.3359  139.6060  160.9469 N.ar    1  UNL1       -0.2884
     26 C         139.0295  138.1421  161.0621 C.3     1  UNL1        0.1340
     27 C         139.2885  140.2484  163.5412 C.ar    1  UNL1        0.0383
     28 C         139.4826  141.3168  164.5760 C.ar    1  UNL1        0.0055
     29 C         139.3161  140.9911  166.0307 C.ar    1  UNL1        0.0321
     30 C         138.9555  139.5970  166.4507 C.ar    1  UNL1        0.1674
     31 F         138.7890  139.2713  167.9054 F       1  UNL1       -0.2018
     32 C         138.7613  138.5286  165.4159 C.ar    1  UNL1        0.1675
     33 F         138.4007  137.1345  165.8358 F       1  UNL1       -0.2018
     34 C         138.9278  138.8544  163.9612 C.ar    1  UNL1        0.0350
@<TRIPOS>BOND
     1    16    17    1
     2    17     2    1
     3     2     3   ar
     4     3     4   ar
     5     4     5   ar
     6     5     6   ar
     7     6     7   ar
     8     7     8   ar
     9     8     9   ar
    10     9    10   ar
    11     7    11    1
    12    11    12    1
    13    12    13    1
    14    13     1    1
    15     1    18    1
    16    18    19    1
    17    19    20    1
    18    20    21    1
    19    21    22   ar
    20    22    23   ar
    21    23    24   ar
    22    24    27    1
    23    27    28   ar
    24    28    29   ar
    25    29    30   ar
    26    30    31    1
    27    30    32   ar
    28    32    33    1
    29    32    34   ar
    30    24    25   ar
    31    25    26    1
    32    13    14    1
    33    14    15    1
    34    10     2   ar
    35    25    21   ar
    36     9     4   ar
    37    34    27   ar
    38    15     6    1
@<TRIPOS>MOLECULE
*****
 34 38 0 0 0
SMALL
GASTEIGER

@<TRIPOS>ATOM
      1 C         141.2904  142.4180  167.6074 C.3     1  UNL1        0.0730
      2 C         140.8254  145.6193  158.4709 C.ar    1  UNL1        0.2057
      3 N         142.0001  144.9376  159.1076 N.ar    1  UNL1       -0.2121
      4 C         141.6360  144.6156  160.5266 C.ar    1  UNL1        0.1182
      5 C         142.3982  143.9452  161.6310 C.ar    1  UNL1        0.0178
      6 C         141.7606  143.7574  162.9757 C.ar    1  UNL1       -0.0230
      7 C         140.3610  144.2401  163.2160 C.ar    1  UNL1       -0.0216
      8 C         139.5987  144.9105  162.1117 C.ar    1  UNL1        0.0346
      9 C         140.2363  145.0982  160.7670 C.ar    1  UNL1        0.1640
     10 O         139.7353  145.7186  159.4964 O.2     1  UNL1       -0.4384
     11 C         139.5444  144.1537  164.4714 C.3     1  UNL1        0.0434
     12 C         139.9261  143.5632  165.7965 C.3     1  UNL1        0.0768
     13 N         141.2184  142.9134  166.1934 N.3     1  UNL1       -0.2720
     14 C         142.4484  142.6935  165.3633 C.3     1  UNL1        0.0768
     15 C         142.6897  143.0691  163.9313 C.3     1  UNL1        0.0434
     16 C         140.5966  145.1399  155.9276 C.3     1  UNL1        0.0102
     17 C         140.7534  146.1148  157.0569 C.3     1  UNL1        0.0853
     18 C         142.5605  141.8113  168.1258 C.3     1  UNL1        0.0294
     19 C         142.5298  140.4763  168.8091 C.3     1  UNL1        0.0666
     20 S         142.6619  139.2181  168.0033 S.3     1  UNL1       -0.0756
     21 C         142.3590  139.2331  166.5343 C.ar    1  UNL1        0.1932
     22 N         143.3673  139.1701  165.4255 N.ar    1  UNL1       -0.1221
     23 N         142.6262  139.2118  164.1220 N.ar    1  UNL1       -0.1282
     24 C         141.1598  139.3005  164.4252 C.ar    1  UNL1        0.1669
     25 N         140.9947  139.3136  165.9161 N.ar    1  UNL1       -0.2884
     26 C         139.6937  139.3933  166.6584 C.3     1  UNL1        0.1340
     27 C         140.0529  139.3647  163.4150 C.ar    1  UNL1        0.0383
     28 C         139.6214  138.1215  162.6951 C.ar    1  UNL1        0.0055
     29 C         138.5145  138.1857  161.6849 C.ar    1  UNL1        0.0321
     30 C         137.8391  139.4931  161.3944 C.ar    1  UNL1        0.1674
     31 F         136.7322  139.5574  160.3842 F       1  UNL1       -0.2018
     32 C         138.2706  140.7363  162.1143 C.ar    1  UNL1        0.1675
     33 F         137.5952  142.0438  161.8239 F       1  UNL1       -0.2018
     34 C         139.3775  140.6721  163.1245 C.ar    1  UNL1        0.0350
@<TRIPOS>BOND
     1    16    17    1
     2    17     2    1
     3     2     3   ar
     4     3     4   ar
     5     4     5   ar
     6     5     6   ar
     7     6     7   ar
     8     7     8   ar
     9     8     9   ar
    10     9    10   ar
    11     7    11    1
    12    11    12    1
    13    12    13    1
    14    13     1    1
    15     1    18    1
    16    18    19    1
    17    19    20    1
    18    20    21    1
    19    21    22   ar
    20    22    23   ar
    21    23    24   ar
    22    24    27    1
    23    27    28   ar
    24    28    29   ar
    25    29    30   ar
    26    30    31    1
    27    30    32   ar
    28    32    33    1
    29    32    34   ar
    30    24    25   ar
    31    25    26    1
    32    13    14    1
    33    14    15    1
    34    10     2   ar
    35    25    21   ar
    36     9     4   ar
    37    34    27   ar
    38    15     6    1
@<TRIPOS>MOLECULE
*****
 34 38 0 0 0
SMALL
GASTEIGER

@<TRIPOS>ATOM
      1 C         139.0789  139.4554  158.8158 C.3     1  UNL1        0.0730
      2 C         139.4592  140.3870  168.4558 C.ar    1  UNL1        0.2057
      3 N         139.9239  141.4012  167.4529 N.ar    1  UNL1       -0.2121
      4 C         139.6772  140.8443  166.0822 C.ar    1  UNL1        0.1182
      5 C         139.9348  141.3986  164.7123 C.ar    1  UNL1        0.0178
      6 C         139.5752  140.5945  163.4981 C.ar    1  UNL1       -0.0230
      7 C         138.9582  139.2363  163.6537 C.ar    1  UNL1       -0.0216
      8 C         138.7006  138.6820  165.0235 C.ar    1  UNL1        0.0346
      9 C         139.0601  139.4860  166.2378 C.ar    1  UNL1        0.1640
     10 O         138.9254  139.2034  167.7047 O.2     1  UNL1       -0.4384
     11 C         138.5274  138.2766  162.5843 C.3     1  UNL1        0.0434
     12 C         138.6073  138.4384  161.0951 C.3     1  UNL1        0.0768
     13 N         139.1377  139.5996  160.3077 N.3     1  UNL1       -0.2720
     14 C         139.7193  140.8860  160.8148 C.3     1  UNL1        0.0768
     15 C         139.9140  141.3288  162.2347 C.3     1  UNL1        0.0434
     16 C         139.8035  141.8700  170.5611 C.3     1  UNL1        0.0102
     17 C         139.5181  140.5312  169.9477 C.3     1  UNL1        0.0853
     18 C         140.3412  139.5056  158.0070 C.3     1  UNL1        0.0294
     19 C         141.2840  138.3390  158.0150 C.3     1  UNL1        0.0666
     20 S         142.7183  138.5365  158.4069 S.3     1  UNL1       -0.0756
     21 C         143.0574  139.3084  159.6476 C.ar    1  UNL1        0.1932
     22 N         143.7469  140.6395  159.6969 N.ar    1  UNL1       -0.1221
     23 N         143.8822  141.0385  161.1366 N.ar    1  UNL1       -0.1282
     24 C         143.2761  139.9538  161.9770 C.ar    1  UNL1        0.1669
     25 N         142.7664  138.8845  161.0567 N.ar    1  UNL1       -0.2884
     26 C         142.0853  137.6144  161.4726 C.3     1  UNL1        0.1340
     27 C         143.1942  139.9407  163.4747 C.ar    1  UNL1        0.0383
     28 C         142.7979  138.6850  164.1931 C.ar    1  UNL1        0.0055
     29 C         142.7160  138.6719  165.6908 C.ar    1  UNL1        0.0321
     30 C         143.0304  139.9144  166.4701 C.ar    1  UNL1        0.1674
     31 F         142.9485  139.9012  167.9678 F       1  UNL1       -0.2018
     32 C         143.4268  141.1700  165.7516 C.ar    1  UNL1        0.1675
     33 F         143.7412  142.4126  166.5308 F       1  UNL1       -0.2018
     34 C         143.5087  141.1831  164.2539 C.ar    1  UNL1        0.0350
@<TRIPOS>BOND
     1    16    17    1
     2    17     2    1
     3     2     3   ar
     4     3     4   ar
     5     4     5   ar
     6     5     6   ar
     7     6     7   ar
     8     7     8   ar
     9     8     9   ar
    10     9    10   ar
    11     7    11    1
    12    11    12    1
    13    12    13    1
    14    13     1    1
    15     1    18    1
    16    18    19    1
    17    19    20    1
    18    20    21    1
    19    21    22   ar
    20    22    23   ar
    21    23    24   ar
    22    24    27    1
    23    27    28   ar
    24    28    29   ar
    25    29    30   ar
    26    30    31    1
    27    30    32   ar
    28    32    33    1
    29    32    34   ar
    30    24    25   ar
    31    25    26    1
    32    13    14    1
    33    14    15    1
    34    10     2   ar
    35    25    21   ar
    36     9     4   ar
    37    34    27   ar
    38    15     6    1
