@<TRIPOS>MOLECULE
*****
 23 23 0 0 0
SMALL
GASTEIGER

@<TRIPOS>ATOM
      1 C         141.7443  140.6567  165.1254 C.ar    1  UNL1        0.2028
      2 C         141.6421  140.6955  166.6213 C.ar    1  UNL1        0.0646
      3 C         140.9402  141.8367  167.2958 C.ar    1  UNL1        0.0115
      4 C         140.3405  142.9391  166.4743 C.ar    1  UNL1        0.0646
      5 C         140.4427  142.9003  164.9783 C.ar    1  UNL1        0.2028
      6 N         141.1446  141.7591  164.3038 N.ar    1  UNL1       -0.1707
      7 C         141.2468  141.7203  162.8078 C.3     1  UNL1        0.4076
      8 C         142.4462  139.5154  164.4509 C.3     1  UNL1        0.0967
      9 C         143.7765  139.0463  164.9611 C.3     1  UNL1        0.0111
     10 C         145.0365  139.4571  164.2585 C.3     1  UNL1        0.0006
     11 C         145.0524  140.6930  163.4085 C.3     1  UNL1        0.0000
     12 C         145.4955  142.0007  163.9946 C.3     1  UNL1        0.0000
     13 C         144.5841  142.7573  164.9148 C.3     1  UNL1        0.0000
     14 C         144.0296  144.4303  163.0059 C.3     1  UNL1        0.0000
     15 C         143.9193  144.0167  164.4436 C.3     1  UNL1        0.0000
     16 C         139.8430  144.0028  164.1567 C.3     1  UNL1        0.0967
     17 C         138.4055  143.9271  163.7350 C.3     1  UNL1        0.0111
     18 C         137.5660  142.7517  164.1399 C.3     1  UNL1        0.0006
     19 C         137.5321  141.5227  163.2807 C.3     1  UNL1        0.0000
     20 C         137.9589  140.2005  163.8458 C.3     1  UNL1        0.0000
     21 C         138.1099  140.0322  165.3288 C.3     1  UNL1        0.0000
     22 C         138.5767  138.7224  165.8913 C.3     1  UNL1        0.0000
     23 C         139.2000  137.6985  164.9896 C.3     1  UNL1        0.0000
@<TRIPOS>UNITY_ATOM_ATTR
6 1
charge 1
@<TRIPOS>BOND
     1    14    15    1
     2    15    13    1
     3    13    12    1
     4    12    11    1
     5    11    10    1
     6    10     9    1
     7     9     8    1
     8     8     1    1
     9     1     2   ar
    10     2     3   ar
    11     3     4   ar
    12     4     5   ar
    13     5    16    1
    14    16    17    1
    15    17    18    1
    16    18    19    1
    17    19    20    1
    18    20    21    1
    19    21    22    1
    20    22    23    1
    21     5     6   ar
    22     6     7    1
    23     6     1   ar
@<TRIPOS>MOLECULE
*****
 23 23 0 0 0
SMALL
GASTEIGER

@<TRIPOS>ATOM
      1 C         142.7358  143.4267  164.7618 C.ar    1  UNL1        0.2028
      2 C         142.6781  142.4376  165.8880 C.ar    1  UNL1        0.0646
      3 C         141.3926  142.2198  166.6297 C.ar    1  UNL1        0.0115
      4 C         140.1649  142.9910  166.2452 C.ar    1  UNL1        0.0646
      5 C         140.2227  143.9801  165.1190 C.ar    1  UNL1        0.2028
      6 N         141.5081  144.1979  164.3773 N.ar    1  UNL1       -0.1707
      7 C         141.5659  145.1870  163.2510 C.3     1  UNL1        0.4076
      8 C         144.0213  143.6445  164.0201 C.3     1  UNL1        0.0967
      9 C         144.5825  142.5545  163.1558 C.3     1  UNL1        0.0111
     10 C         145.6255  141.6256  163.7028 C.3     1  UNL1        0.0006
     11 C         145.2299  140.2733  164.2174 C.3     1  UNL1        0.0000
     12 C         144.0104  139.5908  163.6724 C.3     1  UNL1        0.0000
     13 C         142.9840  139.0275  164.6101 C.3     1  UNL1        0.0000
     14 C         142.9916  138.9543  167.2072 C.3     1  UNL1        0.0000
     15 C         143.4154  138.3750  165.8900 C.3     1  UNL1        0.0000
     16 C         138.9949  144.7514  164.7344 C.3     1  UNL1        0.0967
     17 C         137.7593  144.0237  164.2943 C.3     1  UNL1        0.0111
     18 C         137.8608  142.9100  163.2945 C.3     1  UNL1        0.0006
     19 C         137.7171  141.4854  163.7414 C.3     1  UNL1        0.0000
     20 C         138.9239  140.5979  163.8172 C.3     1  UNL1        0.0000
     21 C         138.7995  139.2083  164.3684 C.3     1  UNL1        0.0000
     22 C         139.4408  138.8612  165.6792 C.3     1  UNL1        0.0000
     23 C         138.8922  139.4268  166.9556 C.3     1  UNL1        0.0000
@<TRIPOS>UNITY_ATOM_ATTR
6 1
charge 1
@<TRIPOS>BOND
     1    14    15    1
     2    15    13    1
     3    13    12    1
     4    12    11    1
     5    11    10    1
     6    10     9    1
     7     9     8    1
     8     8     1    1
     9     1     2   ar
    10     2     3   ar
    11     3     4   ar
    12     4     5   ar
    13     5    16    1
    14    16    17    1
    15    17    18    1
    16    18    19    1
    17    19    20    1
    18    20    21    1
    19    21    22    1
    20    22    23    1
    21     5     6   ar
    22     6     7    1
    23     6     1   ar
@<TRIPOS>MOLECULE
*****
 23 23 0 0 0
SMALL
GASTEIGER

@<TRIPOS>ATOM
      1 C         140.2552  143.9301  165.2138 C.ar    1  UNL1        0.2028
      2 C         140.1022  142.8939  166.2875 C.ar    1  UNL1        0.0646
      3 C         141.2639  142.0203  166.6579 C.ar    1  UNL1        0.0115
      4 C         142.5788  142.1830  165.9546 C.ar    1  UNL1        0.0646
      5 C         142.7318  143.2192  164.8809 C.ar    1  UNL1        0.2028
      6 N         141.5700  144.0927  164.5105 N.ar    1  UNL1       -0.1707
      7 C         141.7231  145.1289  163.4367 C.3     1  UNL1        0.4076
      8 C         139.0934  144.8036  164.8434 C.3     1  UNL1        0.0967
      9 C         137.7797  144.1849  164.4675 C.3     1  UNL1        0.0111
     10 C         137.6938  143.2686  163.2830 C.3     1  UNL1        0.0006
     11 C         137.5497  141.7896  163.4878 C.3     1  UNL1        0.0000
     12 C         138.7486  140.8958  163.3703 C.3     1  UNL1        0.0000
     13 C         138.9753  139.8088  164.3787 C.3     1  UNL1        0.0000
     14 C         138.7183  139.2422  166.9012 C.3     1  UNL1        0.0000
     15 C         138.1302  139.7457  165.6164 C.3     1  UNL1        0.0000
     16 C         144.0467  143.3819  164.1775 C.3     1  UNL1        0.0967
     17 C         145.2088  142.5091  164.5486 C.3     1  UNL1        0.0111
     18 C         145.6375  141.4014  163.6325 C.3     1  UNL1        0.0006
     19 C         144.9863  140.0536  163.7294 C.3     1  UNL1        0.0000
     20 C         143.6639  139.8102  163.0645 C.3     1  UNL1        0.0000
     21 C         142.5347  139.2008  163.8415 C.3     1  UNL1        0.0000
     22 C         141.9722  137.8726  163.4301 C.3     1  UNL1        0.0000
     23 C         141.2434  137.0247  164.4301 C.3     1  UNL1        0.0000
@<TRIPOS>UNITY_ATOM_ATTR
6 1
charge 1
@<TRIPOS>BOND
     1    14    15    1
     2    15    13    1
     3    13    12    1
     4    12    11    1
     5    11    10    1
     6    10     9    1
     7     9     8    1
     8     8     1    1
     9     1     2   ar
    10     2     3   ar
    11     3     4   ar
    12     4     5   ar
    13     5    16    1
    14    16    17    1
    15    17    18    1
    16    18    19    1
    17    19    20    1
    18    20    21    1
    19    21    22    1
    20    22    23    1
    21     5     6   ar
    22     6     7    1
    23     6     1   ar
@<TRIPOS>MOLECULE
*****
 23 23 0 0 0
SMALL
GASTEIGER

@<TRIPOS>ATOM
      1 C         138.7516  139.7894  164.5947 C.ar    1  UNL1        0.2028
      2 C         138.1884  139.0091  165.7453 C.ar    1  UNL1        0.0646
      3 C         138.6571  139.2893  167.1424 C.ar    1  UNL1        0.0115
      4 C         139.6888  140.3498  167.3889 C.ar    1  UNL1        0.0646
      5 C         140.2520  141.1300  166.2383 C.ar    1  UNL1        0.2028
      6 N         139.7833  140.8499  164.8412 N.ar    1  UNL1       -0.1707
      7 C         140.3465  141.6302  163.6905 C.3     1  UNL1        0.4076
      8 C         138.2829  139.5092  163.1976 C.3     1  UNL1        0.0967
      9 C         138.5596  138.1767  162.5668 C.3     1  UNL1        0.0111
     10 C         139.9670  137.7867  162.2247 C.3     1  UNL1        0.0006
     11 C         140.8743  137.2431  163.2884 C.3     1  UNL1        0.0000
     12 C         141.9842  138.0923  163.8333 C.3     1  UNL1        0.0000
     13 C         142.2476  138.1255  165.3096 C.3     1  UNL1        0.0000
     14 C         144.5157  139.3170  164.8782 C.3     1  UNL1        0.0000
     15 C         143.5097  138.7450  165.8325 C.3     1  UNL1        0.0000
     16 C         141.2838  142.1906  166.4847 C.3     1  UNL1        0.0967
     17 C         142.4709  141.8948  167.3525 C.3     1  UNL1        0.0111
     18 C         142.5781  142.5154  168.7139 C.3     1  UNL1        0.0006
     19 C         141.3426  142.9832  169.4243 C.3     1  UNL1        0.0000
     20 C         140.7557  142.1578  170.5307 C.3     1  UNL1        0.0000
     21 C         141.4841  140.9448  171.0289 C.3     1  UNL1        0.0000
     22 C         141.3061  139.6261  170.3366 C.3     1  UNL1        0.0000
     23 C         142.5018  138.8844  169.8169 C.3     1  UNL1        0.0000
@<TRIPOS>UNITY_ATOM_ATTR
6 1
charge 1
@<TRIPOS>BOND
     1    14    15    1
     2    15    13    1
     3    13    12    1
     4    12    11    1
     5    11    10    1
     6    10     9    1
     7     9     8    1
     8     8     1    1
     9     1     2   ar
    10     2     3   ar
    11     3     4   ar
    12     4     5   ar
    13     5    16    1
    14    16    17    1
    15    17    18    1
    16    18    19    1
    17    19    20    1
    18    20    21    1
    19    21    22    1
    20    22    23    1
    21     5     6   ar
    22     6     7    1
    23     6     1   ar
@<TRIPOS>MOLECULE
*****
 23 23 0 0 0
SMALL
GASTEIGER

@<TRIPOS>ATOM
      1 C         139.4013  143.1502  165.4809 C.ar    1  UNL1        0.2028
      2 C         140.3906  143.0229  166.6011 C.ar    1  UNL1        0.0646
      3 C         140.6430  141.6849  167.2305 C.ar    1  UNL1        0.0115
      4 C         139.9060  140.4742  166.7396 C.ar    1  UNL1        0.0646
      5 C         138.9167  140.6015  165.6194 C.ar    1  UNL1        0.2028
      6 N         138.6643  141.9394  164.9901 N.ar    1  UNL1       -0.1707
      7 C         137.6749  142.0667  163.8698 C.3     1  UNL1        0.4076
      8 C         139.1489  144.4881  164.8516 C.3     1  UNL1        0.0967
      9 C         139.9876  144.9426  163.6940 C.3     1  UNL1        0.0111
     10 C         141.3845  144.4216  163.5296 C.3     1  UNL1        0.0006
     11 C         142.5557  145.3310  163.7560 C.3     1  UNL1        0.0000
     12 C         143.8539  144.7714  164.2575 C.3     1  UNL1        0.0000
     13 C         143.8815  143.4347  164.9376 C.3     1  UNL1        0.0000
     14 C         145.2501  142.1382  163.1498 C.3     1  UNL1        0.0000
     15 C         144.9458  142.4371  164.5879 C.3     1  UNL1        0.0000
     16 C         138.1796  139.3907  165.1285 C.3     1  UNL1        0.0967
     17 C         138.7057  138.0188  165.4304 C.3     1  UNL1        0.0111
     18 C         139.6491  137.3502  164.4747 C.3     1  UNL1        0.0006
     19 C         141.1303  137.4549  164.6864 C.3     1  UNL1        0.0000
     20 C         141.9653  138.2779  163.7509 C.3     1  UNL1        0.0000
     21 C         142.4153  139.6500  164.1570 C.3     1  UNL1        0.0000
     22 C         141.8326  140.8592  163.4874 C.3     1  UNL1        0.0000
     23 C         140.8307  140.6952  162.3832 C.3     1  UNL1        0.0000
@<TRIPOS>UNITY_ATOM_ATTR
6 1
charge 1
@<TRIPOS>BOND
     1    14    15    1
     2    15    13    1
     3    13    12    1
     4    12    11    1
     5    11    10    1
     6    10     9    1
     7     9     8    1
     8     8     1    1
     9     1     2   ar
    10     2     3   ar
    11     3     4   ar
    12     4     5   ar
    13     5    16    1
    14    16    17    1
    15    17    18    1
    16    18    19    1
    17    19    20    1
    18    20    21    1
    19    21    22    1
    20    22    23    1
    21     5     6   ar
    22     6     7    1
    23     6     1   ar
@<TRIPOS>MOLECULE
*****
 23 23 0 0 0
SMALL
GASTEIGER

@<TRIPOS>ATOM
      1 C         140.4895  139.9706  166.4375 C.ar    1  UNL1        0.2028
      2 C         139.2755  139.7735  167.2961 C.ar    1  UNL1        0.0646
      3 C         138.1931  138.8311  166.8597 C.ar    1  UNL1        0.0115
      4 C         138.3248  138.0859  165.5647 C.ar    1  UNL1        0.0646
      5 C         139.5388  138.2830  164.7061 C.ar    1  UNL1        0.2028
      6 N         140.6212  139.2254  165.1425 N.ar    1  UNL1       -0.1707
      7 C         141.8353  139.4224  164.2838 C.3     1  UNL1        0.4076
      8 C         141.5718  140.9130  166.8740 C.3     1  UNL1        0.0967
      9 C         141.3530  142.3948  166.7946 C.3     1  UNL1        0.0111
     10 C         140.2639  143.0365  167.6021 C.3     1  UNL1        0.0006
     11 C         140.4534  143.2603  169.0732 C.3     1  UNL1        0.0000
     12 C         139.9850  142.2279  170.0554 C.3     1  UNL1        0.0000
     13 C         140.9767  141.3175  170.7169 C.3     1  UNL1        0.0000
     14 C         142.2453  139.1662  170.0011 C.3     1  UNL1        0.0000
     15 C         140.9728  139.8505  170.4043 C.3     1  UNL1        0.0000
     16 C         139.6706  137.5377  163.4109 C.3     1  UNL1        0.0967
     17 C         139.2826  138.1995  162.1220 C.3     1  UNL1        0.0111
     18 C         137.9605  138.8986  162.0060 C.3     1  UNL1        0.0006
     19 C         137.8963  140.3960  162.0651 C.3     1  UNL1        0.0000
     20 C         137.4245  141.0777  163.3152 C.3     1  UNL1        0.0000
     21 C         138.3717  141.9276  164.1092 C.3     1  UNL1        0.0000
     22 C         137.9214  143.2555  164.6419 C.3     1  UNL1        0.0000
     23 C         138.8088  144.4574  164.5077 C.3     1  UNL1        0.0000
@<TRIPOS>UNITY_ATOM_ATTR
6 1
charge 1
@<TRIPOS>BOND
     1    14    15    1
     2    15    13    1
     3    13    12    1
     4    12    11    1
     5    11    10    1
     6    10     9    1
     7     9     8    1
     8     8     1    1
     9     1     2   ar
    10     2     3   ar
    11     3     4   ar
    12     4     5   ar
    13     5    16    1
    14    16    17    1
    15    17    18    1
    16    18    19    1
    17    19    20    1
    18    20    21    1
    19    21    22    1
    20    22    23    1
    21     5     6   ar
    22     6     7    1
    23     6     1   ar
@<TRIPOS>MOLECULE
*****
 23 23 0 0 0
SMALL
GASTEIGER

@<TRIPOS>ATOM
      1 C         139.7709  142.3614  165.0312 C.ar    1  UNL1        0.2028
      2 C         140.4005  142.7567  166.3340 C.ar    1  UNL1        0.0646
      3 C         141.7980  142.3169  166.6556 C.ar    1  UNL1        0.0115
      4 C         142.5660  141.4817  165.6744 C.ar    1  UNL1        0.0646
      5 C         141.9363  141.0864  164.3716 C.ar    1  UNL1        0.2028
      6 N         140.5388  141.5262  164.0500 N.ar    1  UNL1       -0.1707
      7 C         139.9092  141.1309  162.7471 C.3     1  UNL1        0.4076
      8 C         138.3733  142.8012  164.7096 C.3     1  UNL1        0.0967
      9 C         138.1123  144.2137  164.2777 C.3     1  UNL1        0.0111
     10 C         138.3963  144.6307  162.8651 C.3     1  UNL1        0.0006
     11 C         139.5944  145.4804  162.5604 C.3     1  UNL1        0.0000
     12 C         140.9736  144.9029  162.6808 C.3     1  UNL1        0.0000
     13 C         141.8415  145.2708  163.8476 C.3     1  UNL1        0.0000
     14 C         143.8410  144.0183  162.7598 C.3     1  UNL1        0.0000
     15 C         143.2591  144.7847  163.9105 C.3     1  UNL1        0.0000
     16 C         142.7043  140.2512  163.3903 C.3     1  UNL1        0.0967
     17 C         142.9251  138.7921  163.6586 C.3     1  UNL1        0.0111
     18 C         141.7916  137.8215  163.5061 C.3     1  UNL1        0.0006
     19 C         140.8534  137.5782  164.6508 C.3     1  UNL1        0.0000
     20 C         139.3945  137.8949  164.5051 C.3     1  UNL1        0.0000
     21 C         138.4882  137.8211  165.6981 C.3     1  UNL1        0.0000
     22 C         138.1378  139.0695  166.4521 C.3     1  UNL1        0.0000
     23 C         139.0715  139.6001  167.4993 C.3     1  UNL1        0.0000
@<TRIPOS>UNITY_ATOM_ATTR
6 1
charge 1
@<TRIPOS>BOND
     1    14    15    1
     2    15    13    1
     3    13    12    1
     4    12    11    1
     5    11    10    1
     6    10     9    1
     7     9     8    1
     8     8     1    1
     9     1     2   ar
    10     2     3   ar
    11     3     4   ar
    12     4     5   ar
    13     5    16    1
    14    16    17    1
    15    17    18    1
    16    18    19    1
    17    19    20    1
    18    20    21    1
    19    21    22    1
    20    22    23    1
    21     5     6   ar
    22     6     7    1
    23     6     1   ar
@<TRIPOS>MOLECULE
*****
 23 23 0 0 0
SMALL
GASTEIGER

@<TRIPOS>ATOM
      1 C         143.8873  139.7140  163.6996 C.ar    1  UNL1        0.2028
      2 C         144.1963  139.2207  165.0820 C.ar    1  UNL1        0.0646
      3 C         143.2307  138.3163  165.7889 C.ar    1  UNL1        0.0115
      4 C         141.9561  137.9053  165.1134 C.ar    1  UNL1        0.0646
      5 C         141.6471  138.3986  163.7310 C.ar    1  UNL1        0.2028
      6 N         142.6127  139.3030  163.0241 N.ar    1  UNL1       -0.1707
      7 C         142.3036  139.7963  161.6416 C.3     1  UNL1        0.4076
      8 C         144.8529  140.6184  162.9927 C.3     1  UNL1        0.0967
      9 C         145.6099  141.6578  163.7650 C.3     1  UNL1        0.0111
     10 C         144.8668  142.7038  164.5421 C.3     1  UNL1        0.0006
     11 C         143.7814  143.5000  163.8803 C.3     1  UNL1        0.0000
     12 C         142.3971  143.5060  164.4579 C.3     1  UNL1        0.0000
     13 C         141.7638  142.2205  164.9010 C.3     1  UNL1        0.0000
     14 C         142.5152  141.7171  167.3366 C.3     1  UNL1        0.0000
     15 C         141.4264  142.0102  166.3474 C.3     1  UNL1        0.0000
     16 C         140.3724  137.9876  163.0554 C.3     1  UNL1        0.0967
     17 C         139.1265  138.8009  163.2460 C.3     1  UNL1        0.0111
     18 C         138.6223  139.0875  164.6294 C.3     1  UNL1        0.0006
     19 C         138.3274  140.4989  165.0428 C.3     1  UNL1        0.0000
     20 C         137.9982  141.5310  164.0053 C.3     1  UNL1        0.0000
     21 C         137.5994  142.9150  164.4242 C.3     1  UNL1        0.0000
     22 C         138.6327  143.9986  164.5137 C.3     1  UNL1        0.0000
     23 C         138.5895  144.9847  165.6431 C.3     1  UNL1        0.0000
@<TRIPOS>UNITY_ATOM_ATTR
6 1
charge 1
@<TRIPOS>BOND
     1    14    15    1
     2    15    13    1
     3    13    12    1
     4    12    11    1
     5    11    10    1
     6    10     9    1
     7     9     8    1
     8     8     1    1
     9     1     2   ar
    10     2     3   ar
    11     3     4   ar
    12     4     5   ar
    13     5    16    1
    14    16    17    1
    15    17    18    1
    16    18    19    1
    17    19    20    1
    18    20    21    1
    19    21    22    1
    20    22    23    1
    21     5     6   ar
    22     6     7    1
    23     6     1   ar
@<TRIPOS>MOLECULE
*****
 23 23 0 0 0
SMALL
GASTEIGER

@<TRIPOS>ATOM
      1 C         143.3185  140.2156  165.1671 C.ar    1  UNL1        0.2028
      2 C         144.3036  139.6663  164.1784 C.ar    1  UNL1        0.0646
      3 C         145.3233  140.5717  163.5536 C.ar    1  UNL1        0.0115
      4 C         145.3579  142.0264  163.9176 C.ar    1  UNL1        0.0646
      5 C         144.3728  142.5757  164.9063 C.ar    1  UNL1        0.2028
      6 N         143.3530  141.6703  165.5311 N.ar    1  UNL1       -0.1707
      7 C         142.3678  142.2197  166.5199 C.3     1  UNL1        0.4076
      8 C         142.2987  139.3101  165.7919 C.3     1  UNL1        0.0967
      9 C         142.1691  137.8909  165.3242 C.3     1  UNL1        0.0111
     10 C         141.1700  137.5396  164.2619 C.3     1  UNL1        0.0006
     11 C         140.0790  138.5067  163.9091 C.3     1  UNL1        0.0000
     12 C         138.7543  138.4308  164.6087 C.3     1  UNL1        0.0000
     13 C         138.3820  139.4696  165.6247 C.3     1  UNL1        0.0000
     14 C         139.3772  139.9205  167.9819 C.3     1  UNL1        0.0000
     15 C         138.4537  139.1472  167.0879 C.3     1  UNL1        0.0000
     16 C         144.4073  144.0305  165.2703 C.3     1  UNL1        0.0967
     17 C         143.9133  145.0592  164.2968 C.3     1  UNL1        0.0111
     18 C         142.7371  144.7552  163.4169 C.3     1  UNL1        0.0006
     19 C         141.3824  145.2995  163.7612 C.3     1  UNL1        0.0000
     20 C         140.3686  144.4196  164.4304 C.3     1  UNL1        0.0000
     21 C         138.9043  144.6875  164.2456 C.3     1  UNL1        0.0000
     22 C         137.9019  143.6111  164.5397 C.3     1  UNL1        0.0000
     23 C         137.5996  142.5655  163.5076 C.3     1  UNL1        0.0000
@<TRIPOS>UNITY_ATOM_ATTR
6 1
charge 1
@<TRIPOS>BOND
     1    14    15    1
     2    15    13    1
     3    13    12    1
     4    12    11    1
     5    11    10    1
     6    10     9    1
     7     9     8    1
     8     8     1    1
     9     1     2   ar
    10     2     3   ar
    11     3     4   ar
    12     4     5   ar
    13     5    16    1
    14    16    17    1
    15    17    18    1
    16    18    19    1
    17    19    20    1
    18    20    21    1
    19    21    22    1
    20    22    23    1
    21     5     6   ar
    22     6     7    1
    23     6     1   ar
