@<TRIPOS>MOLECULE
*****
 29 33 0 0 0
SMALL
GASTEIGER

@<TRIPOS>ATOM
      1 C         143.7330  142.8727  166.5975 C.3     1  UNL1        0.0285
      2 C         142.5748  142.0170  166.1778 C.3     1  UNL1        0.1321
      3 C         142.3516  141.7169  164.7252 C.3     1  UNL1        0.2279
      4 O         141.1933  140.8613  164.3054 O.3     1  UNL1       -0.4707
      5 C         140.2582  140.3057  165.3383 C.ar    1  UNL1        0.1675
      6 C         139.0999  139.4500  164.9186 C.ar    1  UNL1        0.0837
      7 C         138.1648  138.8944  165.9515 C.ar    1  UNL1        0.0177
      8 C         138.3879  139.1945  167.4041 C.ar    1  UNL1        0.0029
      9 C         139.5462  140.0502  167.8239 C.ar    1  UNL1        0.0191
     10 C         139.7694  140.3503  169.2765 C.ar    1  UNL1        0.0074
     11 C         140.9277  141.2060  169.6962 C.ar    1  UNL1        0.0702
     12 C         141.8628  141.7615  168.6633 C.ar    1  UNL1        0.2620
     13 O         143.0211  142.6172  169.0831 O.2     1  UNL1       -0.2669
     14 N         141.6397  141.4615  167.2106 N.ar    1  UNL1       -0.2909
     15 C         140.4814  140.6058  166.7909 C.ar    1  UNL1        0.0978
     16 N         138.8767  139.1499  163.4660 N.pl3   1  UNL1       -0.3051
     17 C         139.1487  137.8419  162.7839 C.3     1  UNL1        0.0910
     18 C         138.7824  137.9887  161.3368 C.3     1  UNL1        0.0244
     19 C         138.2840  139.3875  161.1243 C.3     1  UNL1        0.0344
     20 C         138.3423  140.1051  162.4403 C.3     1  UNL1        0.0921
     21 C         137.8105  139.9668  159.8243 C.3     1  UNL1        0.0406
     22 N         136.3334  139.7459  159.9633 N.3     1  UNL1       -0.3231
     23 C         137.8500  140.6229  158.4760 C.3     1  UNL1        0.0156
     24 C         139.1232  140.3889  159.2338 C.3     1  UNL1        0.0156
     25 H         136.1398  139.2937  160.8569 H       1  UNL1        0.1188
     26 H         136.0056  139.1504  159.2029 H       1  UNL1        0.1188
     27 C         141.1509  141.5060  171.1489 C.2     1  UNL1        0.0775
     28 O         142.2685  140.8344  171.8904 O.co2   1  UNL1       -0.5444
     29 O         140.2564  142.4778  171.8600 O.co2   1  UNL1       -0.5444
@<TRIPOS>UNITY_ATOM_ATTR
28 1
charge -1
@<TRIPOS>BOND
     1     2     1    1
     2     2     3    1
     3     3     4    1
     4     4     5    1
     5     5     6   ar
     6     6    16    1
     7    16    17    1
     8    17    18    1
     9    18    19    1
    10    19    21    1
    11    21    22    1
    12    21    23    1
    13    23    24    1
    14    19    20    1
    15     6     7   ar
    16     7     8   ar
    17     8     9   ar
    18     9    10   ar
    19    10    11   ar
    20    11    27    1
    21    27    28   ar
    22    27    29   ar
    23    11    12   ar
    24    12    13    2
    25    12    14   ar
    26    14    15   ar
    27    14     2    1
    28    15     5   ar
    29    20    16    1
    30    15     9   ar
    31    24    21    1
    32    22    25    1
    33    22    26    1
@<TRIPOS>MOLECULE
*****
 29 33 0 0 0
SMALL
GASTEIGER

@<TRIPOS>ATOM
      1 C         138.0027  138.5737  166.9346 C.3     1  UNL1        0.0285
      2 C         139.2311  139.1746  166.3182 C.3     1  UNL1        0.1321
      3 C         139.6233  138.8082  164.9175 C.3     1  UNL1        0.2279
      4 O         140.8517  139.4091  164.3011 O.3     1  UNL1       -0.4707
      5 C         141.6879  140.3764  165.0853 C.ar    1  UNL1        0.1675
      6 C         142.9162  140.9774  164.4689 C.ar    1  UNL1        0.0837
      7 C         143.7524  141.9447  165.2531 C.ar    1  UNL1        0.0177
      8 C         143.3602  142.3111  166.6539 C.ar    1  UNL1        0.0029
      9 C         142.1319  141.7102  167.2703 C.ar    1  UNL1        0.0191
     10 C         141.7397  142.0765  168.6710 C.ar    1  UNL1        0.0074
     11 C         140.5113  141.4756  169.2874 C.ar    1  UNL1        0.0702
     12 C         139.6751  140.5083  168.5031 C.ar    1  UNL1        0.2620
     13 O         138.4467  139.9074  169.1196 O.2     1  UNL1       -0.2669
     14 N         140.0673  140.1419  167.1024 N.ar    1  UNL1       -0.2909
     15 C         141.2957  140.7428  166.4860 C.ar    1  UNL1        0.0978
     16 N         143.3084  140.6110  163.0682 N.pl3   1  UNL1       -0.3051
     17 C         143.8176  139.2743  162.6162 C.3     1  UNL1        0.0910
     18 C         144.0842  139.3541  161.1422 C.3     1  UNL1        0.0244
     19 C         143.7398  140.7401  160.6832 C.3     1  UNL1        0.0344
     20 C         143.2604  141.5169  161.8736 C.3     1  UNL1        0.0921
     21 C         143.8547  141.2583  159.2803 C.3     1  UNL1        0.0406
     22 N         144.0891  139.9715  158.5457 N.3     1  UNL1       -0.3231
     23 C         143.8882  142.2232  158.1325 C.3     1  UNL1        0.0156
     24 C         143.6603  142.7249  159.5276 C.3     1  UNL1        0.0156
     25 H         144.0939  139.1971  159.2095 H       1  UNL1        0.1188
     26 H         144.9879  140.0131  158.0653 H       1  UNL1        0.1188
     27 C         140.1191  141.8421  170.6881 C.2     1  UNL1        0.0775
     28 O         139.2217  143.0189  170.9322 O.co2   1  UNL1       -0.5444
     29 O         140.6243  141.0315  171.8448 O.co2   1  UNL1       -0.5444
@<TRIPOS>UNITY_ATOM_ATTR
28 1
charge -1
@<TRIPOS>BOND
     1     2     1    1
     2     2     3    1
     3     3     4    1
     4     4     5    1
     5     5     6   ar
     6     6    16    1
     7    16    17    1
     8    17    18    1
     9    18    19    1
    10    19    21    1
    11    21    22    1
    12    21    23    1
    13    23    24    1
    14    19    20    1
    15     6     7   ar
    16     7     8   ar
    17     8     9   ar
    18     9    10   ar
    19    10    11   ar
    20    11    27    1
    21    27    28   ar
    22    27    29   ar
    23    11    12   ar
    24    12    13    2
    25    12    14   ar
    26    14    15   ar
    27    14     2    1
    28    15     5   ar
    29    20    16    1
    30    15     9   ar
    31    24    21    1
    32    22    25    1
    33    22    26    1
@<TRIPOS>MOLECULE
*****
 29 33 0 0 0
SMALL
GASTEIGER

@<TRIPOS>ATOM
      1 C         138.7492  139.3873  166.7737 C.3     1  UNL1        0.0285
      2 C         139.7335  140.2704  166.0657 C.3     1  UNL1        0.1321
      3 C         139.5443  140.5901  164.6124 C.3     1  UNL1        0.2279
      4 O         140.5286  141.4732  163.9044 O.3     1  UNL1       -0.4707
      5 C         141.7021  142.0366  164.6496 C.ar    1  UNL1        0.1675
      6 C         142.6864  142.9197  163.9416 C.ar    1  UNL1        0.0837
      7 C         143.8599  143.4831  164.6868 C.ar    1  UNL1        0.0177
      8 C         144.0492  143.1635  166.1401 C.ar    1  UNL1        0.0029
      9 C         143.0649  142.2804  166.8481 C.ar    1  UNL1        0.0191
     10 C         143.2541  141.9607  168.3014 C.ar    1  UNL1        0.0074
     11 C         142.2698  141.0776  169.0094 C.ar    1  UNL1        0.0702
     12 C         141.0963  140.5142  168.2642 C.ar    1  UNL1        0.2620
     13 O         140.1120  139.6311  168.9722 O.2     1  UNL1       -0.2669
     14 N         140.9071  140.8338  166.8109 N.ar    1  UNL1       -0.2909
     15 C         141.8914  141.7169  166.1028 C.ar    1  UNL1        0.0978
     16 N         142.4972  143.2394  162.4883 N.pl3   1  UNL1       -0.3051
     17 C         143.2180  142.5935  161.3423 C.3     1  UNL1        0.0910
     18 C         142.7203  143.2160  160.0716 C.3     1  UNL1        0.0244
     19 C         141.6918  144.2467  160.4322 C.3     1  UNL1        0.0344
     20 C         141.5540  144.2612  161.9259 C.3     1  UNL1        0.0921
     21 C         140.9343  145.1112  159.4685 C.3     1  UNL1        0.0406
     22 N         139.8560  145.6280  160.3742 N.3     1  UNL1       -0.3231
     23 C         140.5512  145.7962  158.1902 C.3     1  UNL1        0.0156
     24 C         141.7495  144.8947  158.2281 C.3     1  UNL1        0.0156
     25 H         139.9829  145.2407  161.3093 H       1  UNL1        0.1188
     26 H         138.9445  145.3488  160.0114 H       1  UNL1        0.1188
     27 C         142.4591  140.7579  170.4627 C.2     1  UNL1        0.0775
     28 O         143.4198  139.6822  170.8751 O.co2   1  UNL1       -0.5444
     29 O         141.6877  141.5139  171.5036 O.co2   1  UNL1       -0.5444
@<TRIPOS>UNITY_ATOM_ATTR
28 1
charge -1
@<TRIPOS>BOND
     1     2     1    1
     2     2     3    1
     3     3     4    1
     4     4     5    1
     5     5     6   ar
     6     6    16    1
     7    16    17    1
     8    17    18    1
     9    18    19    1
    10    19    21    1
    11    21    22    1
    12    21    23    1
    13    23    24    1
    14    19    20    1
    15     6     7   ar
    16     7     8   ar
    17     8     9   ar
    18     9    10   ar
    19    10    11   ar
    20    11    27    1
    21    27    28   ar
    22    27    29   ar
    23    11    12   ar
    24    12    13    2
    25    12    14   ar
    26    14    15   ar
    27    14     2    1
    28    15     5   ar
    29    20    16    1
    30    15     9   ar
    31    24    21    1
    32    22    25    1
    33    22    26    1
@<TRIPOS>MOLECULE
*****
 29 33 0 0 0
SMALL
GASTEIGER

@<TRIPOS>ATOM
      1 C         139.3769  144.1634  166.3044 C.3     1  UNL1        0.0285
      2 C         140.1509  142.9636  165.8443 C.3     1  UNL1        0.1321
      3 C         140.1893  142.6094  164.3873 C.3     1  UNL1        0.2279
      4 O         140.9633  141.4097  163.9273 O.3     1  UNL1       -0.4707
      5 C         141.6988  140.5642  164.9243 C.ar    1  UNL1        0.1675
      6 C         142.4728  139.3645  164.4643 C.ar    1  UNL1        0.0837
      7 C         143.2083  138.5190  165.4613 C.ar    1  UNL1        0.0177
      8 C         143.1699  138.8732  166.9184 C.ar    1  UNL1        0.0029
      9 C         142.3959  140.0729  167.3784 C.ar    1  UNL1        0.0191
     10 C         142.3574  140.4271  168.8355 C.ar    1  UNL1        0.0074
     11 C         141.5834  141.6268  169.2955 C.ar    1  UNL1        0.0702
     12 C         140.8479  142.4723  168.2985 C.ar    1  UNL1        0.2620
     13 O         140.0739  143.6720  168.7585 O.2     1  UNL1       -0.2669
     14 N         140.8864  142.1181  166.8413 N.ar    1  UNL1       -0.2909
     15 C         141.6603  140.9184  166.3813 C.ar    1  UNL1        0.0978
     16 N         142.5113  139.0103  163.0072 N.pl3   1  UNL1       -0.3051
     17 C         141.9201  137.7812  162.3827 C.3     1  UNL1        0.0910
     18 C         142.1911  137.8342  160.9083 C.3     1  UNL1        0.0244
     19 C         142.9498  139.0960  160.6216 C.3     1  UNL1        0.0344
     20 C         143.1477  139.8229  161.9188 C.3     1  UNL1        0.0921
     21 C         143.4269  139.5511  159.2743 C.3     1  UNL1        0.0406
     22 N         143.2040  138.2971  158.4818 N.3     1  UNL1       -0.3231
     23 C         143.9813  140.4416  158.2022 C.3     1  UNL1        0.0156
     24 C         143.8154  140.9631  159.5988 C.3     1  UNL1        0.0156
     25 H         142.8177  137.5749  159.0897 H       1  UNL1        0.1188
     26 H         144.0919  137.9769  158.0951 H       1  UNL1        0.1188
     27 C         141.5450  141.9810  170.7526 C.2     1  UNL1        0.0775
     28 O         140.6191  141.2489  171.6782 O.co2   1  UNL1       -0.5444
     29 O         142.4324  143.0673  171.2841 O.co2   1  UNL1       -0.5444
@<TRIPOS>UNITY_ATOM_ATTR
28 1
charge -1
@<TRIPOS>BOND
     1     2     1    1
     2     2     3    1
     3     3     4    1
     4     4     5    1
     5     5     6   ar
     6     6    16    1
     7    16    17    1
     8    17    18    1
     9    18    19    1
    10    19    21    1
    11    21    22    1
    12    21    23    1
    13    23    24    1
    14    19    20    1
    15     6     7   ar
    16     7     8   ar
    17     8     9   ar
    18     9    10   ar
    19    10    11   ar
    20    11    27    1
    21    27    28   ar
    22    27    29   ar
    23    11    12   ar
    24    12    13    2
    25    12    14   ar
    26    14    15   ar
    27    14     2    1
    28    15     5   ar
    29    20    16    1
    30    15     9   ar
    31    24    21    1
    32    22    25    1
    33    22    26    1
@<TRIPOS>MOLECULE
*****
 29 33 0 0 0
SMALL
GASTEIGER

@<TRIPOS>ATOM
      1 C         143.7432  138.2820  166.5904 C.3     1  UNL1        0.0285
      2 C         143.0157  139.4511  165.9955 C.3     1  UNL1        0.1321
      3 C         143.1762  139.7722  164.5391 C.3     1  UNL1        0.2279
      4 O         142.4487  140.9413  163.9442 O.3     1  UNL1       -0.4707
      5 C         141.5607  141.7894  164.8057 C.ar    1  UNL1        0.1675
      6 C         140.8332  142.9585  164.2108 C.ar    1  UNL1        0.0837
      7 C         139.9452  143.8066  165.0722 C.ar    1  UNL1        0.0177
      8 C         139.7847  143.4855  166.5287 C.ar    1  UNL1        0.0029
      9 C         140.5122  142.3164  167.1236 C.ar    1  UNL1        0.0191
     10 C         140.3516  141.9953  168.5800 C.ar    1  UNL1        0.0074
     11 C         141.0791  140.8262  169.1749 C.ar    1  UNL1        0.0702
     12 C         141.9671  139.9781  168.3134 C.ar    1  UNL1        0.2620
     13 O         142.6946  138.8090  168.9083 O.2     1  UNL1       -0.2669
     14 N         142.1277  140.2992  166.8569 N.ar    1  UNL1       -0.2909
     15 C         141.4002  141.4683  166.2620 C.ar    1  UNL1        0.0978
     16 N         140.9937  143.2796  162.7544 N.pl3   1  UNL1       -0.3051
     17 C         142.2191  143.8549  162.1081 C.3     1  UNL1        0.0910
     18 C         141.9398  144.0126  160.6429 C.3     1  UNL1        0.0244
     19 C         140.5418  143.5348  160.3834 C.3     1  UNL1        0.0344
     20 C         139.9571  143.0817  161.6884 C.3     1  UNL1        0.0921
     21 C         139.8500  143.5136  159.0526 C.3     1  UNL1        0.0406
     22 N         138.5091  142.9822  159.4646 N.3     1  UNL1       -0.3231
     23 C         139.6238  143.6771  157.5789 C.3     1  UNL1        0.0156
     24 C         140.9506  144.0377  158.1786 C.3     1  UNL1        0.0156
     25 H         138.5040  142.8154  160.4708 H       1  UNL1        0.1188
     26 H         138.3248  142.1071  158.9739 H       1  UNL1        0.1188
     27 C         140.9186  140.5052  170.6314 C.2     1  UNL1        0.0775
     28 O         139.7739  139.6508  171.0893 O.co2   1  UNL1       -0.5444
     29 O         141.9028  141.0385  171.6298 O.co2   1  UNL1       -0.5444
@<TRIPOS>UNITY_ATOM_ATTR
28 1
charge -1
@<TRIPOS>BOND
     1     2     1    1
     2     2     3    1
     3     3     4    1
     4     4     5    1
     5     5     6   ar
     6     6    16    1
     7    16    17    1
     8    17    18    1
     9    18    19    1
    10    19    21    1
    11    21    22    1
    12    21    23    1
    13    23    24    1
    14    19    20    1
    15     6     7   ar
    16     7     8   ar
    17     8     9   ar
    18     9    10   ar
    19    10    11   ar
    20    11    27    1
    21    27    28   ar
    22    27    29   ar
    23    11    12   ar
    24    12    13    2
    25    12    14   ar
    26    14    15   ar
    27    14     2    1
    28    15     5   ar
    29    20    16    1
    30    15     9   ar
    31    24    21    1
    32    22    25    1
    33    22    26    1
@<TRIPOS>MOLECULE
*****
 29 33 0 0 0
SMALL
GASTEIGER

@<TRIPOS>ATOM
      1 C         143.4443  142.6682  166.7796 C.3     1  UNL1        0.0285
      2 C         142.5474  141.8621  165.8875 C.3     1  UNL1        0.1321
      3 C         142.8293  141.7807  164.4165 C.3     1  UNL1        0.2279
      4 O         141.9324  140.9747  163.5244 O.3     1  UNL1       -0.4707
      5 C         140.7535  140.2501  164.1033 C.ar    1  UNL1        0.1675
      6 C         139.8566  139.4440  163.2112 C.ar    1  UNL1        0.0837
      7 C         138.6778  138.7194  163.7900 C.ar    1  UNL1        0.0177
      8 C         138.3958  138.8007  165.2611 C.ar    1  UNL1        0.0029
      9 C         139.2927  139.6068  166.1532 C.ar    1  UNL1        0.0191
     10 C         139.0108  139.6881  167.6242 C.ar    1  UNL1        0.0074
     11 C         139.9077  140.4942  168.5163 C.ar    1  UNL1        0.0702
     12 C         141.0866  141.2188  167.9374 C.ar    1  UNL1        0.2620
     13 O         141.9835  142.0249  168.8295 O.2     1  UNL1       -0.2669
     14 N         141.3685  141.1375  166.4664 N.ar    1  UNL1       -0.2909
     15 C         140.4716  140.3314  165.5742 C.ar    1  UNL1        0.0978
     16 N         140.1386  139.3627  161.7402 N.pl3   1  UNL1       -0.3051
     17 C         139.3845  140.0757  160.6571 C.3     1  UNL1        0.0910
     18 C         140.0039  139.7077  159.3415 C.3     1  UNL1        0.0244
     19 C         141.1409  138.7672  159.6114 C.3     1  UNL1        0.0344
     20 C         141.2241  138.5539  161.0939 C.3     1  UNL1        0.0921
     21 C         142.0372  138.1485  158.5799 C.3     1  UNL1        0.0406
     22 N         143.3468  138.1979  159.3096 N.3     1  UNL1       -0.3231
     23 C         142.4787  137.5128  157.2952 C.3     1  UNL1        0.0156
     24 C         141.0389  137.8843  157.4921 C.3     1  UNL1        0.0156
     25 H         143.2082  138.6175  160.2290 H       1  UNL1        0.1188
     26 H         144.0119  138.7585  158.7769 H       1  UNL1        0.1188
     27 C         139.6257  140.5755  169.9874 C.2     1  UNL1        0.0775
     28 O         139.1256  141.8570  170.5854 O.co2   1  UNL1       -0.5444
     29 O         139.8438  139.3754  170.8603 O.co2   1  UNL1       -0.5444
@<TRIPOS>UNITY_ATOM_ATTR
28 1
charge -1
@<TRIPOS>BOND
     1     2     1    1
     2     2     3    1
     3     3     4    1
     4     4     5    1
     5     5     6   ar
     6     6    16    1
     7    16    17    1
     8    17    18    1
     9    18    19    1
    10    19    21    1
    11    21    22    1
    12    21    23    1
    13    23    24    1
    14    19    20    1
    15     6     7   ar
    16     7     8   ar
    17     8     9   ar
    18     9    10   ar
    19    10    11   ar
    20    11    27    1
    21    27    28   ar
    22    27    29   ar
    23    11    12   ar
    24    12    13    2
    25    12    14   ar
    26    14    15   ar
    27    14     2    1
    28    15     5   ar
    29    20    16    1
    30    15     9   ar
    31    24    21    1
    32    22    25    1
    33    22    26    1
@<TRIPOS>MOLECULE
*****
 29 33 0 0 0
SMALL
GASTEIGER

@<TRIPOS>ATOM
      1 C         137.6099  138.5268  167.4837 C.3     1  UNL1        0.0285
      2 C         138.4919  139.3384  166.5819 C.3     1  UNL1        0.1321
      3 C         138.4312  139.1398  165.0963 C.3     1  UNL1        0.2279
      4 O         139.3132  139.9513  164.1945 O.3     1  UNL1       -0.4707
      5 C         140.2559  140.9616  164.7781 C.ar    1  UNL1        0.1675
      6 C         141.1380  141.7731  163.8763 C.ar    1  UNL1        0.0837
      7 C         142.0807  142.7834  164.4599 C.ar    1  UNL1        0.0177
      8 C         142.1414  142.9820  165.9455 C.ar    1  UNL1        0.0029
      9 C         141.2594  142.1704  166.8474 C.ar    1  UNL1        0.0191
     10 C         141.3201  142.3691  168.3329 C.ar    1  UNL1        0.0074
     11 C         140.4381  141.5575  169.2348 C.ar    1  UNL1        0.0702
     12 C         139.4954  140.5473  168.6511 C.ar    1  UNL1        0.2620
     13 O         138.6133  139.7357  169.5530 O.2     1  UNL1       -0.2669
     14 N         139.4346  140.3486  167.1655 N.ar    1  UNL1       -0.2909
     15 C         140.3166  141.1602  166.2636 C.ar    1  UNL1        0.0978
     16 N         141.0773  141.5745  162.3907 N.pl3   1  UNL1       -0.3051
     17 C         142.0139  140.7339  161.5746 C.3     1  UNL1        0.0910
     18 C         141.5848  140.8214  160.1399 C.3     1  UNL1        0.0244
     19 C         140.3829  141.7162  160.0694 C.3     1  UNL1        0.0344
     20 C         140.0693  142.1816  161.4605 C.3     1  UNL1        0.0921
     21 C         139.6274  142.0814  158.8261 C.3     1  UNL1        0.0406
     22 N         138.5412  142.9281  159.4206 N.3     1  UNL1       -0.3231
     23 C         139.2491  142.1526  157.3764 C.3     1  UNL1        0.0156
     24 C         140.4512  141.3616  157.7998 C.3     1  UNL1        0.0156
     25 H         138.6641  142.9780  160.4319 H       1  UNL1        0.1188
     26 H         137.6333  142.5147  159.2084 H       1  UNL1        0.1188
     27 C         140.4988  141.7561  170.7204 C.2     1  UNL1        0.0775
     28 O         139.6550  142.8119  171.3710 O.co2   1  UNL1       -0.5444
     29 O         141.4034  140.8990  171.5553 O.co2   1  UNL1       -0.5444
@<TRIPOS>UNITY_ATOM_ATTR
28 1
charge -1
@<TRIPOS>BOND
     1     2     1    1
     2     2     3    1
     3     3     4    1
     4     4     5    1
     5     5     6   ar
     6     6    16    1
     7    16    17    1
     8    17    18    1
     9    18    19    1
    10    19    21    1
    11    21    22    1
    12    21    23    1
    13    23    24    1
    14    19    20    1
    15     6     7   ar
    16     7     8   ar
    17     8     9   ar
    18     9    10   ar
    19    10    11   ar
    20    11    27    1
    21    27    28   ar
    22    27    29   ar
    23    11    12   ar
    24    12    13    2
    25    12    14   ar
    26    14    15   ar
    27    14     2    1
    28    15     5   ar
    29    20    16    1
    30    15     9   ar
    31    24    21    1
    32    22    25    1
    33    22    26    1
@<TRIPOS>MOLECULE
*****
 29 33 0 0 0
SMALL
GASTEIGER

@<TRIPOS>ATOM
      1 C         138.9020  139.9926  169.3460 C.3     1  UNL1        0.0285
      2 C         139.5160  140.0979  167.9815 C.3     1  UNL1        0.1321
      3 C         138.8424  139.4571  166.8044 C.3     1  UNL1        0.2279
      4 O         139.4564  139.5624  165.4399 O.3     1  UNL1       -0.4707
      5 C         140.7442  140.3085  165.2525 C.ar    1  UNL1        0.1675
      6 C         141.3582  140.4138  163.8880 C.ar    1  UNL1        0.0837
      7 C         142.6459  141.1599  163.7006 C.ar    1  UNL1        0.0177
      8 C         143.3196  141.8007  164.8777 C.ar    1  UNL1        0.0029
      9 C         142.7056  141.6954  166.2422 C.ar    1  UNL1        0.0191
     10 C         143.3792  142.3361  167.4193 C.ar    1  UNL1        0.0074
     11 C         142.7652  142.2308  168.7838 C.ar    1  UNL1        0.0702
     12 C         141.4775  141.4847  168.9712 C.ar    1  UNL1        0.2620
     13 O         140.8634  141.3794  170.3357 O.2     1  UNL1       -0.2669
     14 N         140.8037  140.8439  167.7941 N.ar    1  UNL1       -0.2909
     15 C         141.4178  140.9492  166.4296 C.ar    1  UNL1        0.0978
     16 N         140.6846  139.7731  162.7109 N.pl3   1  UNL1       -0.3051
     17 C         140.3448  138.3184  162.5736 C.3     1  UNL1        0.0910
     18 C         139.6826  138.1207  161.2423 C.3     1  UNL1        0.0244
     19 C         139.6131  139.4531  160.5567 C.3     1  UNL1        0.0344
     20 C         140.2324  140.4743  161.4644 C.3     1  UNL1        0.0921
     21 C         139.0273  139.7179  159.2014 C.3     1  UNL1        0.0406
     22 N         137.5888  139.9212  159.5747 N.3     1  UNL1       -0.3231
     23 C         138.9410  139.9120  157.7166 C.3     1  UNL1        0.0156
     24 C         140.2624  139.6065  158.3576 C.3     1  UNL1        0.0156
     25 H         137.4815  139.8180  160.5838 H       1  UNL1        0.1188
     26 H         137.0126  139.2271  159.0987 H       1  UNL1        0.1188
     27 C         143.4389  142.8716  169.9609 C.2     1  UNL1        0.0775
     28 O         144.9335  142.8342  170.0816 O.co2   1  UNL1       -0.5444
     29 O         142.6179  143.5498  171.0174 O.co2   1  UNL1       -0.5444
@<TRIPOS>UNITY_ATOM_ATTR
28 1
charge -1
@<TRIPOS>BOND
     1     2     1    1
     2     2     3    1
     3     3     4    1
     4     4     5    1
     5     5     6   ar
     6     6    16    1
     7    16    17    1
     8    17    18    1
     9    18    19    1
    10    19    21    1
    11    21    22    1
    12    21    23    1
    13    23    24    1
    14    19    20    1
    15     6     7   ar
    16     7     8   ar
    17     8     9   ar
    18     9    10   ar
    19    10    11   ar
    20    11    27    1
    21    27    28   ar
    22    27    29   ar
    23    11    12   ar
    24    12    13    2
    25    12    14   ar
    26    14    15   ar
    27    14     2    1
    28    15     5   ar
    29    20    16    1
    30    15     9   ar
    31    24    21    1
    32    22    25    1
    33    22    26    1
@<TRIPOS>MOLECULE
*****
 29 33 0 0 0
SMALL
GASTEIGER

@<TRIPOS>ATOM
      1 C         143.2492  140.1910  160.1605 C.3     1  UNL1        0.0285
      2 C         142.3022  140.6142  161.2441 C.3     1  UNL1        0.1321
      3 C         142.1362  139.7647  162.4691 C.3     1  UNL1        0.2279
      4 O         141.1891  140.1879  163.5526 O.3     1  UNL1       -0.4707
      5 C         140.4081  141.4607  163.4111 C.ar    1  UNL1        0.1675
      6 C         139.4610  141.8839  164.4946 C.ar    1  UNL1        0.0837
      7 C         138.6800  143.1566  164.3531 C.ar    1  UNL1        0.0177
      8 C         138.8459  144.0062  163.1280 C.ar    1  UNL1        0.0029
      9 C         139.7930  143.5830  162.0445 C.ar    1  UNL1        0.0191
     10 C         139.9590  144.4325  160.8195 C.ar    1  UNL1        0.0074
     11 C         140.9060  144.0093  159.7360 C.ar    1  UNL1        0.0702
     12 C         141.6871  142.7366  159.8775 C.ar    1  UNL1        0.2620
     13 O         142.6341  142.3133  158.7940 O.2     1  UNL1       -0.2669
     14 N         141.5211  141.8870  161.1025 N.ar    1  UNL1       -0.2909
     15 C         140.5741  142.3102  162.1861 C.ar    1  UNL1        0.0978
     16 N         139.2950  141.0344  165.7196 N.pl3   1  UNL1       -0.3051
     17 C         138.4573  139.7945  165.8260 C.3     1  UNL1        0.0910
     18 C         138.5821  139.2694  167.2255 C.3     1  UNL1        0.0244
     19 C         139.4970  140.1846  167.9841 C.3     1  UNL1        0.0344
     20 C         139.9376  141.2754  167.0534 C.3     1  UNL1        0.0921
     21 C         139.9004  140.0352  169.4211 C.3     1  UNL1        0.0406
     22 N         138.5571  140.1382  170.0808 N.3     1  UNL1       -0.3231
     23 C         140.7702  139.8501  170.6290 C.3     1  UNL1        0.0156
     24 C         141.3836  139.8804  169.2605 C.3     1  UNL1        0.0156
     25 H         137.8382  140.2704  169.3694 H       1  UNL1        0.1188
     26 H         138.5525  140.9326  170.7206 H       1  UNL1        0.1188
     27 C         141.0720  144.8589  158.5109 C.2     1  UNL1        0.0775
     28 O         142.1654  145.8840  158.4516 O.co2   1  UNL1       -0.5444
     29 O         140.1445  144.6833  157.3451 O.co2   1  UNL1       -0.5444
@<TRIPOS>UNITY_ATOM_ATTR
28 1
charge -1
@<TRIPOS>BOND
     1     2     1    1
     2     2     3    1
     3     3     4    1
     4     4     5    1
     5     5     6   ar
     6     6    16    1
     7    16    17    1
     8    17    18    1
     9    18    19    1
    10    19    21    1
    11    21    22    1
    12    21    23    1
    13    23    24    1
    14    19    20    1
    15     6     7   ar
    16     7     8   ar
    17     8     9   ar
    18     9    10   ar
    19    10    11   ar
    20    11    27    1
    21    27    28   ar
    22    27    29   ar
    23    11    12   ar
    24    12    13    2
    25    12    14   ar
    26    14    15   ar
    27    14     2    1
    28    15     5   ar
    29    20    16    1
    30    15     9   ar
    31    24    21    1
    32    22    25    1
    33    22    26    1
