@<TRIPOS>MOLECULE
*****
 23 25 0 0 0
SMALL
GASTEIGER

@<TRIPOS>ATOM
      1 C         139.6537  146.0901  161.7687 C.3     1  UNL1        0.0310
      2 C         139.7400  144.9616  162.7531 C.ar    1  UNL1       -0.0222
      3 C         140.8208  144.9545  163.7931 C.ar    1  UNL1       -0.0043
      4 C         140.9071  143.8260  164.7775 C.ar    1  UNL1       -0.0009
      5 C         139.9125  142.7046  164.7219 C.ar    1  UNL1       -0.0079
      6 C         138.8317  142.7116  163.6818 C.ar    1  UNL1       -0.0187
      7 C         138.7454  143.8401  162.6974 C.ar    1  UNL1       -0.0082
      8 C         137.9989  141.4783  163.8704 C.3     1  UNL1        0.0480
      9 C         138.5651  140.7091  165.0270 C.2     1  UNL1       -0.0421
     10 C         139.7477  141.4670  165.5532 C.2     1  UNL1       -0.0246
     11 C         140.6136  141.0589  166.7081 C.3     1  UNL1        0.0634
     12 C         141.7527  140.1072  166.4919 C.3     1  UNL1        0.0111
     13 C         140.3405  141.6024  168.0792 C.ar    1  UNL1        0.0818
     14 C         139.7310  140.7202  169.1281 C.ar    1  UNL1        0.1139
     15 N         139.4579  141.2638  170.4992 N.ar    1  UNL1       -0.2394
     16 C         139.7942  142.6897  170.8214 C.ar    1  UNL1        0.1195
     17 C         140.4037  143.5719  169.7725 C.ar    1  UNL1        0.1191
     18 N         140.6768  143.0283  168.4014 N.ar    1  UNL1       -0.2446
     19 C         138.0406  139.4100  165.5632 C.3     1  UNL1        0.0394
     20 C         138.8823  138.1710  165.4827 C.3     1  UNL1        0.0765
     21 N         139.4866  137.7586  164.1733 N.3     1  UNL1       -0.2700
     22 C         138.6502  137.7590  162.9281 C.3     1  UNL1        0.0897
     23 C         140.9272  137.3457  164.1090 C.3     1  UNL1        0.0897
@<TRIPOS>BOND
     1     1     2    1
     2     2     3   ar
     3     3     4   ar
     4     4     5   ar
     5     5     6   ar
     6     6     7   ar
     7     6     8    1
     8     8     9    1
     9     9    19    1
    10    19    20    1
    11    20    21    1
    12    21    22    1
    13    21    23    1
    14     9    10    2
    15    10    11    1
    16    11    12    1
    17    11    13    1
    18    13    14   ar
    19    14    15   ar
    20    15    16   ar
    21    16    17   ar
    22    17    18   ar
    23     7     2   ar
    24    18    13   ar
    25    10     5    1
@<TRIPOS>MOLECULE
*****
 23 25 0 0 0
SMALL
GASTEIGER

@<TRIPOS>ATOM
      1 C         142.8500  143.0476  170.3491 C.3     1  UNL1        0.0310
      2 C         142.1394  142.1821  169.3511 C.ar    1  UNL1       -0.0222
      3 C         140.6549  142.3049  169.1744 C.ar    1  UNL1       -0.0043
      4 C         139.9443  141.4395  168.1764 C.ar    1  UNL1       -0.0009
      5 C         140.7180  140.4513  167.3551 C.ar    1  UNL1       -0.0079
      6 C         142.2025  140.3285  167.5317 C.ar    1  UNL1       -0.0187
      7 C         142.9132  141.1939  168.5297 C.ar    1  UNL1       -0.0082
      8 C         142.6960  139.2727  166.5873 C.3     1  UNL1        0.0480
      9 C         141.5165  138.7430  165.8270 C.2     1  UNL1       -0.0421
     10 C         140.2940  139.4714  166.3015 C.2     1  UNL1       -0.0246
     11 C         138.8935  139.2575  165.8089 C.3     1  UNL1        0.0634
     12 C         137.9081  138.5054  166.6535 C.3     1  UNL1        0.0111
     13 C         138.4782  139.7957  164.4718 C.ar    1  UNL1        0.0818
     14 C         138.1670  141.2546  164.3143 C.ar    1  UNL1        0.1139
     15 N         137.7518  141.7928  162.9770 N.ar    1  UNL1       -0.2394
     16 C         137.6477  140.8720  161.7975 C.ar    1  UNL1        0.1195
     17 C         137.9589  139.4131  161.9550 C.ar    1  UNL1        0.1191
     18 N         138.3742  138.8750  163.2922 N.ar    1  UNL1       -0.2446
     19 C         141.5529  137.6728  164.7766 C.3     1  UNL1        0.0394
     20 C         141.7658  138.0407  163.3381 C.3     1  UNL1        0.0765
     21 N         142.4610  139.3226  162.9868 N.3     1  UNL1       -0.2700
     22 C         143.9591  139.3939  163.0091 C.3     1  UNL1        0.0897
     23 C         141.6580  140.5332  162.6132 C.3     1  UNL1        0.0897
@<TRIPOS>BOND
     1     1     2    1
     2     2     3   ar
     3     3     4   ar
     4     4     5   ar
     5     5     6   ar
     6     6     7   ar
     7     6     8    1
     8     8     9    1
     9     9    19    1
    10    19    20    1
    11    20    21    1
    12    21    22    1
    13    21    23    1
    14     9    10    2
    15    10    11    1
    16    11    12    1
    17    11    13    1
    18    13    14   ar
    19    14    15   ar
    20    15    16   ar
    21    16    17   ar
    22    17    18   ar
    23     7     2   ar
    24    18    13   ar
    25    10     5    1
@<TRIPOS>MOLECULE
*****
 23 25 0 0 0
SMALL
GASTEIGER

@<TRIPOS>ATOM
      1 C         140.3676  139.9376  170.6487 C.3     1  UNL1        0.0310
      2 C         140.2486  140.6161  169.3161 C.ar    1  UNL1       -0.0222
      3 C         140.8095  141.9938  169.1232 C.ar    1  UNL1       -0.0043
      4 C         140.6905  142.6722  167.7907 C.ar    1  UNL1       -0.0009
      5 C         140.0107  141.9729  166.6511 C.ar    1  UNL1       -0.0079
      6 C         139.4498  140.5952  166.8440 C.ar    1  UNL1       -0.0187
      7 C         139.5688  139.9167  168.1765 C.ar    1  UNL1       -0.0082
      8 C         138.8379  140.1578  165.5462 C.3     1  UNL1        0.0480
      9 C         139.0205  141.2654  164.5512 C.2     1  UNL1       -0.0421
     10 C         139.7454  142.3871  165.2341 C.2     1  UNL1       -0.0246
     11 C         140.1363  143.6937  164.6096 C.3     1  UNL1        0.0634
     12 C         139.1853  144.8534  164.6392 C.3     1  UNL1        0.0111
     13 C         141.4781  143.8407  163.9554 C.ar    1  UNL1        0.0818
     14 C         141.5740  144.3414  162.5448 C.ar    1  UNL1        0.1139
     15 N         142.9159  144.4884  161.8907 N.ar    1  UNL1       -0.2394
     16 C         144.1618  144.1346  162.6473 C.ar    1  UNL1        0.1195
     17 C         144.0659  143.6338  164.0579 C.ar    1  UNL1        0.1191
     18 N         142.7241  143.4869  164.7120 N.ar    1  UNL1       -0.2446
     19 C         138.5593  141.2533  163.1238 C.3     1  UNL1        0.0394
     20 C         137.8246  140.0626  162.5831 C.3     1  UNL1        0.0765
     21 N         138.5897  138.8955  162.0330 N.3     1  UNL1       -0.2700
     22 C         139.0642  138.9133  160.6102 C.3     1  UNL1        0.0897
     23 C         138.8803  137.7107  162.9058 C.3     1  UNL1        0.0897
@<TRIPOS>BOND
     1     1     2    1
     2     2     3   ar
     3     3     4   ar
     4     4     5   ar
     5     5     6   ar
     6     6     7   ar
     7     6     8    1
     8     8     9    1
     9     9    19    1
    10    19    20    1
    11    20    21    1
    12    21    22    1
    13    21    23    1
    14     9    10    2
    15    10    11    1
    16    11    12    1
    17    11    13    1
    18    13    14   ar
    19    14    15   ar
    20    15    16   ar
    21    16    17   ar
    22    17    18   ar
    23     7     2   ar
    24    18    13   ar
    25    10     5    1
@<TRIPOS>MOLECULE
*****
 23 25 0 0 0
SMALL
GASTEIGER

@<TRIPOS>ATOM
      1 C         143.7769  142.1286  169.8308 C.3     1  UNL1        0.0310
      2 C         142.6980  141.7098  168.8765 C.ar    1  UNL1       -0.0222
      3 C         142.3234  140.2623  168.7564 C.ar    1  UNL1       -0.0043
      4 C         141.2446  139.8434  167.8022 C.ar    1  UNL1       -0.0009
      5 C         140.5404  140.8720  166.9679 C.ar    1  UNL1       -0.0079
      6 C         140.9150  142.3195  167.0879 C.ar    1  UNL1       -0.0187
      7 C         141.9938  142.7384  168.0422 C.ar    1  UNL1       -0.0082
      8 C         140.0517  143.1017  166.1429 C.3     1  UNL1        0.0480
      9 C         139.1435  142.1376  165.4389 C.2     1  UNL1       -0.0421
     10 C         139.4456  140.7596  165.9487 C.2     1  UNL1       -0.0246
     11 C         138.7712  139.4917  165.5155 C.3     1  UNL1        0.0634
     12 C         137.9060  138.7352  166.4795 C.3     1  UNL1        0.0111
     13 C         138.9619  138.9803  164.1184 C.ar    1  UNL1        0.0818
     14 C         140.1079  138.0648  163.8046 C.ar    1  UNL1        0.1139
     15 N         140.2986  137.5534  162.4074 N.ar    1  UNL1       -0.2394
     16 C         139.3432  137.9575  161.3239 C.ar    1  UNL1        0.1195
     17 C         138.1971  138.8730  161.6377 C.ar    1  UNL1        0.1191
     18 N         138.0065  139.3844  163.0348 N.ar    1  UNL1       -0.2446
     19 C         138.1141  142.4896  164.4062 C.3     1  UNL1        0.0394
     20 C         138.5093  143.2735  163.1899 C.3     1  UNL1        0.0765
     21 N         139.0905  142.5692  161.9999 N.3     1  UNL1       -0.2700
     22 C         138.2979  142.4619  160.7310 C.3     1  UNL1        0.0897
     23 C         140.4643  141.9723  162.0789 C.3     1  UNL1        0.0897
@<TRIPOS>BOND
     1     1     2    1
     2     2     3   ar
     3     3     4   ar
     4     4     5   ar
     5     5     6   ar
     6     6     7   ar
     7     6     8    1
     8     8     9    1
     9     9    19    1
    10    19    20    1
    11    20    21    1
    12    21    22    1
    13    21    23    1
    14     9    10    2
    15    10    11    1
    16    11    12    1
    17    11    13    1
    18    13    14   ar
    19    14    15   ar
    20    15    16   ar
    21    16    17   ar
    22    17    18   ar
    23     7     2   ar
    24    18    13   ar
    25    10     5    1
@<TRIPOS>MOLECULE
*****
 23 25 0 0 0
SMALL
GASTEIGER

@<TRIPOS>ATOM
      1 C         142.2512  139.1329  169.9442 C.3     1  UNL1        0.0310
      2 C         141.8336  140.0573  168.8391 C.ar    1  UNL1       -0.0222
      3 C         140.3776  140.2607  168.5415 C.ar    1  UNL1       -0.0043
      4 C         139.9600  141.1851  167.4365 C.ar    1  UNL1       -0.0009
      5 C         140.9983  141.9060  166.6291 C.ar    1  UNL1       -0.0079
      6 C         142.4543  141.7025  166.9266 C.ar    1  UNL1       -0.0187
      7 C         142.8720  140.7782  168.0317 C.ar    1  UNL1       -0.0082
      8 C         143.2452  142.5431  165.9684 C.3     1  UNL1        0.0480
      9 C         142.2779  143.2660  165.0787 C.2     1  UNL1       -0.0421
     10 C         140.8893  142.8723  165.4870 C.2     1  UNL1       -0.0246
     11 C         139.6153  143.3593  164.8628 C.3     1  UNL1        0.0634
     12 C         138.9141  144.5590  165.4276 C.3     1  UNL1        0.0111
     13 C         139.0424  142.6468  163.6736 C.ar    1  UNL1        0.0818
     14 C         138.3978  143.4300  162.5687 C.ar    1  UNL1        0.1139
     15 N         137.8249  142.7173  161.3795 N.ar    1  UNL1       -0.2394
     16 C         137.8967  141.2214  161.2954 C.ar    1  UNL1        0.1195
     17 C         138.5413  140.4381  162.4003 C.ar    1  UNL1        0.1191
     18 N         139.1142  141.1508  163.5894 N.ar    1  UNL1       -0.2446
     19 C         142.6363  144.2160  163.9745 C.3     1  UNL1        0.0394
     20 C         144.0256  144.2186  163.4088 C.3     1  UNL1        0.0765
     21 N         144.4816  143.0883  162.5346 N.3     1  UNL1       -0.2700
     22 C         144.0141  143.0049  161.1117 C.3     1  UNL1        0.0897
     23 C         145.4050  142.0413  163.0833 C.3     1  UNL1        0.0897
@<TRIPOS>BOND
     1     1     2    1
     2     2     3   ar
     3     3     4   ar
     4     4     5   ar
     5     5     6   ar
     6     6     7   ar
     7     6     8    1
     8     8     9    1
     9     9    19    1
    10    19    20    1
    11    20    21    1
    12    21    22    1
    13    21    23    1
    14     9    10    2
    15    10    11    1
    16    11    12    1
    17    11    13    1
    18    13    14   ar
    19    14    15   ar
    20    15    16   ar
    21    16    17   ar
    22    17    18   ar
    23     7     2   ar
    24    18    13   ar
    25    10     5    1
@<TRIPOS>MOLECULE
*****
 23 25 0 0 0
SMALL
GASTEIGER

@<TRIPOS>ATOM
      1 C         141.6548  140.3280  170.7165 C.3     1  UNL1        0.0310
      2 C         141.3932  140.0363  169.2686 C.ar    1  UNL1       -0.0222
      3 C         140.0055  140.1706  168.7152 C.ar    1  UNL1       -0.0043
      4 C         139.7440  139.8789  167.2672 C.ar    1  UNL1       -0.0009
      5 C         140.8701  139.4529  166.3727 C.ar    1  UNL1       -0.0079
      6 C         142.2578  139.3186  166.9261 C.ar    1  UNL1       -0.0187
      7 C         142.5194  139.6103  168.3740 C.ar    1  UNL1       -0.0082
      8 C         143.1615  138.8830  165.8108 C.3     1  UNL1        0.0480
      9 C         142.3322  138.7481  164.5682 C.2     1  UNL1       -0.0421
     10 C         140.9161  139.1003  164.9154 C.2     1  UNL1       -0.0246
     11 C         139.7506  139.1000  163.9713 C.3     1  UNL1        0.0634
     12 C         139.1695  137.8009  163.4974 C.3     1  UNL1        0.0111
     13 C         139.1660  140.3989  163.5009 C.ar    1  UNL1        0.0818
     14 C         137.7098  140.4831  163.1514 C.ar    1  UNL1        0.1139
     15 N         137.1252  141.7821  162.6810 N.ar    1  UNL1       -0.2394
     16 C         137.9971  142.9967  162.5600 C.ar    1  UNL1        0.1195
     17 C         139.4534  142.9124  162.9094 C.ar    1  UNL1        0.1191
     18 N         140.0378  141.6136  163.3798 N.ar    1  UNL1       -0.2446
     19 C         142.8314  138.3337  163.2157 C.3     1  UNL1        0.0394
     20 C         144.0907  138.9342  162.6647 C.3     1  UNL1        0.0765
     21 N         144.2918  140.4202  162.7018 N.3     1  UNL1       -0.2700
     22 C         145.3861  141.0082  163.5424 C.3     1  UNL1        0.0897
     23 C         143.3984  141.3181  161.8983 C.3     1  UNL1        0.0897
@<TRIPOS>BOND
     1     1     2    1
     2     2     3   ar
     3     3     4   ar
     4     4     5   ar
     5     5     6   ar
     6     6     7   ar
     7     6     8    1
     8     8     9    1
     9     9    19    1
    10    19    20    1
    11    20    21    1
    12    21    22    1
    13    21    23    1
    14     9    10    2
    15    10    11    1
    16    11    12    1
    17    11    13    1
    18    13    14   ar
    19    14    15   ar
    20    15    16   ar
    21    16    17   ar
    22    17    18   ar
    23     7     2   ar
    24    18    13   ar
    25    10     5    1
@<TRIPOS>MOLECULE
*****
 23 25 0 0 0
SMALL
GASTEIGER

@<TRIPOS>ATOM
      1 C         139.0968  140.4718  169.9742 C.3     1  UNL1        0.0310
      2 C         140.0772  140.8505  168.9040 C.ar    1  UNL1       -0.0222
      3 C         140.2691  142.2927  168.5389 C.ar    1  UNL1       -0.0043
      4 C         141.2495  142.6714  167.4687 C.ar    1  UNL1       -0.0009
      5 C         142.0380  141.6079  166.7635 C.ar    1  UNL1       -0.0079
      6 C         141.8461  140.1658  167.1286 C.ar    1  UNL1       -0.0187
      7 C         140.8657  139.7871  168.1988 C.ar    1  UNL1       -0.0082
      8 C         142.7581  139.3440  166.2665 C.3     1  UNL1        0.0480
      9 C         143.5137  140.2784  165.3687 C.2     1  UNL1       -0.0421
     10 C         143.0686  141.6776  165.6759 C.2     1  UNL1       -0.0246
     11 C         143.5667  142.9270  165.0119 C.3     1  UNL1        0.0634
     12 C         144.7111  143.6895  165.6109 C.3     1  UNL1        0.0111
     13 C         142.9203  143.4140  163.7490 C.ar    1  UNL1        0.0818
     14 C         143.7482  143.6260  162.5163 C.ar    1  UNL1        0.1139
     15 N         143.1017  144.1131  161.2533 N.ar    1  UNL1       -0.2394
     16 C         141.6274  144.3881  161.2231 C.ar    1  UNL1        0.1195
     17 C         140.7996  144.1761  162.4559 C.ar    1  UNL1        0.1191
     18 N         141.4460  143.6890  163.7188 N.ar    1  UNL1       -0.2446
     19 C         144.5350  139.8831  164.3436 C.3     1  UNL1        0.0394
     20 C         144.1228  139.0818  163.1444 C.3     1  UNL1        0.0765
     21 N         142.6882  139.0714  162.7064 N.3     1  UNL1       -0.2700
     22 C         141.8395  137.8581  162.9466 C.3     1  UNL1        0.0897
     23 C         142.1024  140.2742  162.0282 C.3     1  UNL1        0.0897
@<TRIPOS>BOND
     1     1     2    1
     2     2     3   ar
     3     3     4   ar
     4     4     5   ar
     5     5     6   ar
     6     6     7   ar
     7     6     8    1
     8     8     9    1
     9     9    19    1
    10    19    20    1
    11    20    21    1
    12    21    22    1
    13    21    23    1
    14     9    10    2
    15    10    11    1
    16    11    12    1
    17    11    13    1
    18    13    14   ar
    19    14    15   ar
    20    15    16   ar
    21    16    17   ar
    22    17    18   ar
    23     7     2   ar
    24    18    13   ar
    25    10     5    1
@<TRIPOS>MOLECULE
*****
 23 25 0 0 0
SMALL
GASTEIGER

@<TRIPOS>ATOM
      1 C         139.7552  146.0668  162.0899 C.3     1  UNL1        0.0310
      2 C         139.9314  144.9211  163.0419 C.ar    1  UNL1       -0.0222
      3 C         138.8026  144.5130  163.9414 C.ar    1  UNL1       -0.0043
      4 C         138.9788  143.3673  164.8934 C.ar    1  UNL1       -0.0009
      5 C         140.2838  142.6297  164.9458 C.ar    1  UNL1       -0.0079
      6 C         141.4126  143.0378  164.0463 C.ar    1  UNL1       -0.0187
      7 C         141.2364  144.1835  163.0943 C.ar    1  UNL1       -0.0082
      8 C         142.5749  142.1297  164.3198 C.3     1  UNL1        0.0480
      9 C         142.1643  141.1605  165.3884 C.2     1  UNL1       -0.0421
     10 C         140.7484  141.4694  165.7753 C.2     1  UNL1       -0.0246
     11 C         139.9391  140.7453  166.8100 C.3     1  UNL1        0.0634
     12 C         138.8555  139.7982  166.3869 C.3     1  UNL1        0.0111
     13 C         140.2131  140.9683  168.2678 C.ar    1  UNL1        0.0818
     14 C         140.6964  142.3060  168.7441 C.ar    1  UNL1        0.1139
     15 N         140.9705  142.5289  170.2020 N.ar    1  UNL1       -0.2394
     16 C         140.7613  141.4140  171.1834 C.ar    1  UNL1        0.1195
     17 C         140.2781  140.0763  170.7071 C.ar    1  UNL1        0.1191
     18 N         140.0040  139.8534  169.2493 N.ar    1  UNL1       -0.2446
     19 C         143.0195  140.0731  165.9684 C.3     1  UNL1        0.0394
     20 C         143.4171  138.9000  165.1224 C.3     1  UNL1        0.0765
     21 N         142.4423  138.3172  164.1426 N.3     1  UNL1       -0.2700
     22 C         142.6299  138.5454  162.6719 C.3     1  UNL1        0.0897
     23 C         141.2798  137.5063  164.6334 C.3     1  UNL1        0.0897
@<TRIPOS>BOND
     1     1     2    1
     2     2     3   ar
     3     3     4   ar
     4     4     5   ar
     5     5     6   ar
     6     6     7   ar
     7     6     8    1
     8     8     9    1
     9     9    19    1
    10    19    20    1
    11    20    21    1
    12    21    22    1
    13    21    23    1
    14     9    10    2
    15    10    11    1
    16    11    12    1
    17    11    13    1
    18    13    14   ar
    19    14    15   ar
    20    15    16   ar
    21    16    17   ar
    22    17    18   ar
    23     7     2   ar
    24    18    13   ar
    25    10     5    1
@<TRIPOS>MOLECULE
*****
 23 25 0 0 0
SMALL
GASTEIGER

@<TRIPOS>ATOM
      1 C         140.4478  139.9527  170.3251 C.3     1  UNL1        0.0310
      2 C         141.0609  140.3468  169.0142 C.ar    1  UNL1       -0.0222
      3 C         142.2558  139.6055  168.4921 C.ar    1  UNL1       -0.0043
      4 C         142.8690  139.9996  167.1811 C.ar    1  UNL1       -0.0009
      5 C         142.2873  141.1350  166.3922 C.ar    1  UNL1       -0.0079
      6 C         141.0925  141.8763  166.9143 C.ar    1  UNL1       -0.0187
      7 C         140.4793  141.4822  168.2253 C.ar    1  UNL1       -0.0082
      8 C         140.7404  142.9453  165.9226 C.3     1  UNL1        0.0480
      9 C         141.7178  142.8646  164.7876 C.2     1  UNL1       -0.0421
     10 C         142.6738  141.7458  165.0778 C.2     1  UNL1       -0.0246
     11 C         143.8159  141.3136  164.2067 C.3     1  UNL1        0.0634
     12 C         145.1442  142.0020  164.3151 C.3     1  UNL1        0.0111
     13 C         143.6297  140.1930  163.2271 C.ar    1  UNL1        0.0818
     14 C         142.7454  139.0323  163.5744 C.ar    1  UNL1        0.1139
     15 N         142.5592  137.9117  162.5946 N.ar    1  UNL1       -0.2394
     16 C         143.2575  137.9519  161.2677 C.ar    1  UNL1        0.1195
     17 C         144.1419  139.1126  160.9204 C.ar    1  UNL1        0.1191
     18 N         144.3280  140.2331  161.9001 N.ar    1  UNL1       -0.2446
     19 C         141.7360  143.7477  163.5752 C.3     1  UNL1        0.0394
     20 C         141.0689  145.0906  163.6154 C.3     1  UNL1        0.0765
     21 N         139.7845  145.3125  162.8731 N.3     1  UNL1       -0.2700
     22 C         139.7427  146.2636  161.7140 C.3     1  UNL1        0.0897
     23 C         138.5418  144.5832  163.2899 C.3     1  UNL1        0.0897
@<TRIPOS>BOND
     1     1     2    1
     2     2     3   ar
     3     3     4   ar
     4     4     5   ar
     5     5     6   ar
     6     6     7   ar
     7     6     8    1
     8     8     9    1
     9     9    19    1
    10    19    20    1
    11    20    21    1
    12    21    22    1
    13    21    23    1
    14     9    10    2
    15    10    11    1
    16    11    12    1
    17    11    13    1
    18    13    14   ar
    19    14    15   ar
    20    15    16   ar
    21    16    17   ar
    22    17    18   ar
    23     7     2   ar
    24    18    13   ar
    25    10     5    1
