@<TRIPOS>MOLECULE
*****
 35 38 0 0 0
SMALL
GASTEIGER

@<TRIPOS>ATOM
      1 N         139.2667  145.1145  164.3632 N.3     1  UNL1       -0.3162
      2 C         139.5505  144.2915  163.1417 C.3     1  UNL1        0.1166
      3 C         139.7290  143.0898  162.2619 C.3     1  UNL1        0.0739
      4 C         140.1123  143.2645  160.8223 C.3     1  UNL1        0.2039
      5 N         140.3171  144.6410  160.2624 N.pl3   1  UNL1       -0.1931
      6 C         140.1387  145.8427  161.1422 C.3     1  UNL1        0.2039
      7 C         139.7554  145.6679  162.5818 C.3     1  UNL1        0.0739
      8 H         139.0369  144.4980  165.1427 H       1  UNL1        0.1192
      9 H         138.4800  145.7368  164.1786 H       1  UNL1        0.1192
     10 C         140.7005  144.8157  158.8228 C.2     1  UNL1        0.3205
     11 N         141.8434  145.7147  158.4547 N.2     1  UNL1        0.0097
     12 C         142.2267  145.8894  157.0152 C.2     1  UNL1        0.4717
     13 N         141.4671  145.1651  155.9435 N.2     1  UNL1        0.0158
     14 C         140.3241  144.2661  156.3115 C.2     1  UNL1        0.3714
     15 N         139.3979  143.4288  155.4803 N.2     1  UNL1       -0.0339
     16 C         138.4421  142.7366  156.4062 C.2     1  UNL1        0.2323
     17 C         138.7776  143.1461  157.8097 C.2     1  UNL1        0.0486
     18 C         139.9408  144.0914  157.7512 C.3     1  UNL1        0.2428
     19 C         139.2471  143.2008  164.1257 C.2     1  UNL1        0.2352
     20 O         137.9003  143.1370  164.7831 O.2     1  UNL1       -0.2737
     21 N         140.2906  142.1739  164.4524 N.am    1  UNL1       -0.3012
     22 H         141.1745  142.2158  164.0209 H       1  UNL1        0.1497
     23 C         139.9872  141.0832  165.4364 C.3     1  UNL1        0.0942
     24 C         140.0909  141.3511  166.9086 C.ar    1  UNL1       -0.0045
     25 C         140.5952  142.6771  167.3959 C.ar    1  UNL1       -0.0018
     26 C         140.6989  142.9451  168.8681 C.ar    1  UNL1        0.0111
     27 C         140.2983  141.8870  169.8530 C.ar    1  UNL1        0.0577
     28 CL        140.4020  142.1550  171.3253 Cl      1  UNL1       -0.0822
     29 C         139.7940  140.5611  169.3658 C.ar    1  UNL1        0.0111
     30 C         139.6903  140.2931  167.8935 C.ar    1  UNL1       -0.0018
     31 C         139.5802  139.7245  164.9482 C.3     1  UNL1        0.0267
     32 C         138.1912  139.4995  164.4283 C.3     1  UNL1        0.0338
     33 C         137.8010  140.0261  163.0790 C.3     1  UNL1        0.1372
     34 O         136.7549  141.0950  162.9651 O.3     1  UNL1       -0.3820
     35 H         135.8992  140.7423  163.2555 H       1  UNL1        0.2104
@<TRIPOS>BOND
     1     1     2    1
     2     2    19    1
     3    19    20    2
     4    19    21   am
     5    21    23    1
     6    23    31    1
     7    31    32    1
     8    32    33    1
     9    33    34    1
    10    23    24    1
    11    24    25   ar
    12    25    26   ar
    13    26    27   ar
    14    27    28    1
    15    27    29   ar
    16    29    30   ar
    17     2     3    1
    18     3     4    1
    19     4     5    1
    20     5    10    1
    21    10    11    2
    22    11    12    1
    23    12    13    2
    24    13    14    1
    25    14    15    2
    26    15    16    1
    27    16    17    2
    28    17    18    1
    29     5     6    1
    30     6     7    1
    31     7     2    1
    32    30    24   ar
    33    18    10    1
    34    18    14    1
    35     1     8    1
    36     1     9    1
    37    21    22    1
    38    34    35    1
@<TRIPOS>MOLECULE
*****
 35 38 0 0 0
SMALL
GASTEIGER

@<TRIPOS>ATOM
      1 N         139.5304  145.2003  164.3253 N.3     1  UNL1       -0.3162
      2 C         139.6413  144.3567  163.0901 C.3     1  UNL1        0.1166
      3 C         139.5773  143.1568  162.1921 C.3     1  UNL1        0.0739
      4 C         139.9783  143.2758  160.7517 C.3     1  UNL1        0.2039
      5 N         140.4433  144.5947  160.2090 N.pl3   1  UNL1       -0.1931
      6 C         140.5074  145.7945  161.1069 C.3     1  UNL1        0.2039
      7 C         140.1063  145.6755  162.5474 C.3     1  UNL1        0.0739
      8 H         139.1900  144.6283  165.0982 H       1  UNL1        0.1192
      9 H         138.8785  145.9664  164.1565 H       1  UNL1        0.1192
     10 C         140.8444  144.7136  158.7685 C.2     1  UNL1        0.3205
     11 N         140.0904  145.6324  157.8535 N.2     1  UNL1        0.0097
     12 C         140.4913  145.7513  156.4131 C.2     1  UNL1        0.4717
     13 N         141.6464  144.9514  155.8875 N.2     1  UNL1        0.0158
     14 C         142.4004  144.0327  156.8025 C.2     1  UNL1        0.3714
     15 N         143.5726  143.1257  156.5713 N.2     1  UNL1       -0.0339
     16 C         143.8960  142.4463  157.8689 C.2     1  UNL1        0.2323
     17 C         142.9237  142.9333  158.9021 C.2     1  UNL1        0.0486
     18 C         141.9994  143.9137  158.2431 C.3     1  UNL1        0.2428
     19 C         139.1377  143.3308  164.0616 C.2     1  UNL1        0.2352
     20 O         137.7508  143.4450  164.6213 O.2     1  UNL1       -0.2737
     21 N         140.0213  142.1907  164.4735 N.am    1  UNL1       -0.3012
     22 H         140.9316  142.1159  164.1061 H       1  UNL1        0.1497
     23 C         139.5178  141.1648  165.4451 C.3     1  UNL1        0.0942
     24 C         139.8625  141.2774  166.9005 C.ar    1  UNL1       -0.0045
     25 C         139.6192  140.1181  167.8208 C.ar    1  UNL1       -0.0018
     26 C         139.9639  140.2308  169.2763 C.ar    1  UNL1        0.0111
     27 C         140.5520  141.5027  169.8115 C.ar    1  UNL1        0.0577
     28 CL        140.8967  141.6153  171.2671 Cl      1  UNL1       -0.0822
     29 C         140.7953  142.6620  168.8913 C.ar    1  UNL1        0.0111
     30 C         140.4506  142.5493  167.4357 C.ar    1  UNL1       -0.0018
     31 C         138.6696  140.0262  164.9611 C.3     1  UNL1        0.0267
     32 C         138.7114  139.6206  163.5175 C.3     1  UNL1        0.0338
     33 C         137.6164  140.0492  162.5861 C.3     1  UNL1        0.1372
     34 O         136.7005  141.1726  162.9721 O.3     1  UNL1       -0.3820
     35 H         136.1676  140.9067  163.7378 H       1  UNL1        0.2104
@<TRIPOS>BOND
     1     1     2    1
     2     2    19    1
     3    19    20    2
     4    19    21   am
     5    21    23    1
     6    23    31    1
     7    31    32    1
     8    32    33    1
     9    33    34    1
    10    23    24    1
    11    24    25   ar
    12    25    26   ar
    13    26    27   ar
    14    27    28    1
    15    27    29   ar
    16    29    30   ar
    17     2     3    1
    18     3     4    1
    19     4     5    1
    20     5    10    1
    21    10    11    2
    22    11    12    1
    23    12    13    2
    24    13    14    1
    25    14    15    2
    26    15    16    1
    27    16    17    2
    28    17    18    1
    29     5     6    1
    30     6     7    1
    31     7     2    1
    32    30    24   ar
    33    18    10    1
    34    18    14    1
    35     1     8    1
    36     1     9    1
    37    21    22    1
    38    34    35    1
@<TRIPOS>MOLECULE
*****
 35 38 0 0 0
SMALL
GASTEIGER

@<TRIPOS>ATOM
      1 N         140.7675  145.5471  164.0335 N.3     1  UNL1       -0.3162
      2 C         141.3242  144.9307  162.7846 C.3     1  UNL1        0.1166
      3 C         142.1911  144.0937  161.8912 C.3     1  UNL1        0.0739
      4 C         141.9718  144.1059  160.4075 C.3     1  UNL1        0.2039
      5 N         140.8855  144.9553  159.8169 N.pl3   1  UNL1       -0.1931
      6 C         140.0186  145.7923  160.7101 C.3     1  UNL1        0.2039
      7 C         140.2380  145.7800  162.1940 C.3     1  UNL1        0.0739
      8 H         141.2855  145.2036  164.8423 H       1  UNL1        0.1192
      9 H         139.7836  145.2949  164.1277 H       1  UNL1        0.1192
     10 C         140.6661  144.9675  158.3330 C.2     1  UNL1        0.3205
     11 N         141.4129  145.9432  157.4725 N.2     1  UNL1        0.0097
     12 C         141.1936  145.9554  155.9888 C.2     1  UNL1        0.4717
     13 N         140.2274  144.9921  155.3654 N.2     1  UNL1        0.0158
     14 C         139.4807  144.0164  156.2259 C.2     1  UNL1        0.3714
     15 N         138.4723  142.9556  155.8975 N.2     1  UNL1       -0.0339
     16 C         138.0685  142.2876  157.1785 C.2     1  UNL1        0.2323
     17 C         138.8272  142.9357  158.2985 C.2     1  UNL1        0.0486
     18 C         139.7000  144.0042  157.7097 C.3     1  UNL1        0.2428
     19 C         142.2171  144.2954  163.8088 C.2     1  UNL1        0.2352
     20 O         143.5182  144.9453  164.1761 O.2     1  UNL1       -0.2737
     21 N         141.8089  143.0102  164.4658 N.am    1  UNL1       -0.3012
     22 H         140.9550  142.5837  164.2247 H       1  UNL1        0.1497
     23 C         142.7018  142.3749  165.4901 C.3     1  UNL1        0.0942
     24 C         142.2792  142.3295  166.9286 C.ar    1  UNL1       -0.0045
     25 C         140.8265  142.4344  167.2872 C.ar    1  UNL1       -0.0018
     26 C         140.4039  142.3890  168.7257 C.ar    1  UNL1        0.0111
     27 C         141.4341  142.2388  169.8056 C.ar    1  UNL1        0.0577
     28 CL        141.0114  142.1934  171.2442 Cl      1  UNL1       -0.0822
     29 C         142.8867  142.1339  169.4471 C.ar    1  UNL1        0.0111
     30 C         143.3094  142.1792  168.0085 C.ar    1  UNL1       -0.0018
     31 C         144.0172  141.7849  165.0758 C.3     1  UNL1        0.0267
     32 C         144.0885  140.8706  163.8888 C.3     1  UNL1        0.0338
     33 C         145.0923  141.1267  162.8040 C.3     1  UNL1        0.1372
     34 O         146.3539  141.8776  163.1118 O.3     1  UNL1       -0.3820
     35 H         146.1357  142.7921  163.3504 H       1  UNL1        0.2104
@<TRIPOS>BOND
     1     1     2    1
     2     2    19    1
     3    19    20    2
     4    19    21   am
     5    21    23    1
     6    23    31    1
     7    31    32    1
     8    32    33    1
     9    33    34    1
    10    23    24    1
    11    24    25   ar
    12    25    26   ar
    13    26    27   ar
    14    27    28    1
    15    27    29   ar
    16    29    30   ar
    17     2     3    1
    18     3     4    1
    19     4     5    1
    20     5    10    1
    21    10    11    2
    22    11    12    1
    23    12    13    2
    24    13    14    1
    25    14    15    2
    26    15    16    1
    27    16    17    2
    28    17    18    1
    29     5     6    1
    30     6     7    1
    31     7     2    1
    32    30    24   ar
    33    18    10    1
    34    18    14    1
    35     1     8    1
    36     1     9    1
    37    21    22    1
    38    34    35    1
@<TRIPOS>MOLECULE
*****
 35 38 0 0 0
SMALL
GASTEIGER

@<TRIPOS>ATOM
      1 N         138.4527  141.6221  158.8887 N.3     1  UNL1       -0.3162
      2 C         139.1508  142.9246  158.6317 C.3     1  UNL1        0.1166
      3 C         139.8775  144.2103  158.8946 C.3     1  UNL1        0.0739
      4 C         140.2797  145.0920  157.7498 C.3     1  UNL1        0.2039
      5 N         139.9554  144.6881  156.3420 N.pl3   1  UNL1       -0.1931
      6 C         139.2289  143.4024  156.0791 C.3     1  UNL1        0.2039
      7 C         138.8266  142.5207  157.2240 C.3     1  UNL1        0.0739
      8 H         138.4266  141.4426  159.8924 H       1  UNL1        0.1192
      9 H         138.9565  140.8683  158.4214 H       1  UNL1        0.1192
     10 C         140.3578  145.5699  155.1971 C.2     1  UNL1        0.3205
     11 N         141.2674  145.0421  154.1276 N.2     1  UNL1        0.0097
     12 C         141.6697  145.9238  152.9828 C.2     1  UNL1        0.4717
     13 N         141.1624  147.3334  152.9075 N.2     1  UNL1        0.0158
     14 C         140.2527  147.8612  153.9770 C.2     1  UNL1        0.3714
     15 N         139.5990  149.1975  154.1692 N.2     1  UNL1       -0.0339
     16 C         138.7927  149.1416  155.4327 C.2     1  UNL1        0.2323
     17 C         138.9480  147.7708  156.0216 C.2     1  UNL1        0.0486
     18 C         139.8504  146.9794  155.1219 C.3     1  UNL1        0.2428
     19 C         139.2327  142.8762  160.1287 C.2     1  UNL1        0.2352
     20 O         140.5662  142.7468  160.8031 O.2     1  UNL1       -0.2737
     21 N         137.9809  142.9573  160.9511 N.am    1  UNL1       -0.3012
     22 H         137.1057  143.0422  160.5084 H       1  UNL1        0.1497
     23 C         138.0627  142.9089  162.4482 C.3     1  UNL1        0.0942
     24 C         138.2237  141.5922  163.1483 C.ar    1  UNL1       -0.0045
     25 C         138.3164  141.5449  164.6447 C.ar    1  UNL1       -0.0018
     26 C         138.4774  140.2281  165.3449 C.ar    1  UNL1        0.0111
     27 C         138.5458  138.9587  164.5487 C.ar    1  UNL1        0.0577
     28 CL        138.7068  137.6420  165.2489 Cl      1  UNL1       -0.0822
     29 C         138.4531  139.0060  163.0523 C.ar    1  UNL1        0.0111
     30 C         138.2921  140.3228  162.3521 C.ar    1  UNL1       -0.0018
     31 C         137.9834  144.1774  163.2449 C.3     1  UNL1        0.0267
     32 C         139.2233  144.9826  163.4984 C.3     1  UNL1        0.0338
     33 C         139.8761  145.7288  162.3728 C.3     1  UNL1        0.1372
     34 O         139.0384  146.5190  161.4116 O.3     1  UNL1       -0.3820
     35 H         138.4755  145.9158  160.9016 H       1  UNL1        0.2104
@<TRIPOS>BOND
     1     1     2    1
     2     2    19    1
     3    19    20    2
     4    19    21   am
     5    21    23    1
     6    23    31    1
     7    31    32    1
     8    32    33    1
     9    33    34    1
    10    23    24    1
    11    24    25   ar
    12    25    26   ar
    13    26    27   ar
    14    27    28    1
    15    27    29   ar
    16    29    30   ar
    17     2     3    1
    18     3     4    1
    19     4     5    1
    20     5    10    1
    21    10    11    2
    22    11    12    1
    23    12    13    2
    24    13    14    1
    25    14    15    2
    26    15    16    1
    27    16    17    2
    28    17    18    1
    29     5     6    1
    30     6     7    1
    31     7     2    1
    32    30    24   ar
    33    18    10    1
    34    18    14    1
    35     1     8    1
    36     1     9    1
    37    21    22    1
    38    34    35    1
@<TRIPOS>MOLECULE
*****
 35 38 0 0 0
SMALL
GASTEIGER

@<TRIPOS>ATOM
      1 N         144.4766  143.5414  164.1557 N.3     1  UNL1       -0.3162
      2 C         143.0506  143.3010  164.5538 C.3     1  UNL1        0.1166
      3 C         141.5516  143.3024  164.4963 C.3     1  UNL1        0.0739
      4 C         140.7577  142.6908  165.6123 C.3     1  UNL1        0.2039
      5 N         141.4627  142.0778  166.7860 N.pl3   1  UNL1       -0.1931
      6 C         142.9616  142.0764  166.8435 C.3     1  UNL1        0.2039
      7 C         143.7555  142.6880  165.7273 C.3     1  UNL1        0.0739
      8 H         144.5021  144.0222  163.2565 H       1  UNL1        0.1192
      9 H         144.9630  142.6483  164.0777 H       1  UNL1        0.1192
     10 C         140.6687  141.4662  167.9020 C.2     1  UNL1        0.3205
     11 N         140.9211  141.8863  169.3197 N.2     1  UNL1        0.0097
     12 C         140.1272  141.2748  170.4357 C.2     1  UNL1        0.4717
     13 N         139.0808  140.2431  170.1342 N.2     1  UNL1        0.0158
     14 C         138.8285  139.8230  168.7165 C.2     1  UNL1        0.3714
     15 N         137.8700  138.8369  168.1174 N.2     1  UNL1       -0.0339
     16 C         138.0717  138.8391  166.6310 C.2     1  UNL1        0.2323
     17 C         139.1547  139.8265  166.3115 C.2     1  UNL1        0.0486
     18 C         139.6224  140.4346  167.6004 C.3     1  UNL1        0.2428
     19 C         142.8408  143.9975  163.2419 C.2     1  UNL1        0.2352
     20 O         143.7789  145.0863  162.8124 O.2     1  UNL1       -0.2737
     21 N         141.6929  143.6050  162.3597 N.am    1  UNL1       -0.3012
     22 H         141.0773  142.8904  162.6416 H       1  UNL1        0.1497
     23 C         141.4831  144.3015  161.0478 C.3     1  UNL1        0.0942
     24 C         142.1895  143.8132  159.8180 C.ar    1  UNL1       -0.0045
     25 C         143.1463  142.6616  159.9101 C.ar    1  UNL1       -0.0018
     26 C         143.8528  142.1733  158.6803 C.ar    1  UNL1        0.0111
     27 C         143.6024  142.8365  157.3584 C.ar    1  UNL1        0.0577
     28 CL        144.3089  142.3481  156.1285 Cl      1  UNL1       -0.0822
     29 C         142.6456  143.9880  157.2662 C.ar    1  UNL1        0.0111
     30 C         141.9391  144.4764  158.4961 C.ar    1  UNL1       -0.0018
     31 C         140.5668  145.4863  160.9659 C.3     1  UNL1        0.0267
     32 C         139.6887  145.8373  162.1303 C.3     1  UNL1        0.0338
     33 C         138.8179  144.7883  162.7559 C.3     1  UNL1        0.1372
     34 O         137.3495  144.7534  162.4515 O.3     1  UNL1       -0.3820
     35 H         136.9263  145.5498  162.8085 H       1  UNL1        0.2104
@<TRIPOS>BOND
     1     1     2    1
     2     2    19    1
     3    19    20    2
     4    19    21   am
     5    21    23    1
     6    23    31    1
     7    31    32    1
     8    32    33    1
     9    33    34    1
    10    23    24    1
    11    24    25   ar
    12    25    26   ar
    13    26    27   ar
    14    27    28    1
    15    27    29   ar
    16    29    30   ar
    17     2     3    1
    18     3     4    1
    19     4     5    1
    20     5    10    1
    21    10    11    2
    22    11    12    1
    23    12    13    2
    24    13    14    1
    25    14    15    2
    26    15    16    1
    27    16    17    2
    28    17    18    1
    29     5     6    1
    30     6     7    1
    31     7     2    1
    32    30    24   ar
    33    18    10    1
    34    18    14    1
    35     1     8    1
    36     1     9    1
    37    21    22    1
    38    34    35    1
@<TRIPOS>MOLECULE
*****
 35 38 0 0 0
SMALL
GASTEIGER

@<TRIPOS>ATOM
      1 N         139.7169  145.0628  164.5226 N.3     1  UNL1       -0.3162
      2 C         140.2616  144.3054  163.3481 C.3     1  UNL1        0.1166
      3 C         140.8920  143.2009  162.5526 C.3     1  UNL1        0.0739
      4 C         141.0868  143.3586  161.0737 C.3     1  UNL1        0.2039
      5 N         140.6512  144.6209  160.3903 N.pl3   1  UNL1       -0.1931
      6 C         140.0209  145.7254  161.1858 C.3     1  UNL1        0.2039
      7 C         139.8261  145.5676  162.6647 C.3     1  UNL1        0.0739
      8 H         139.8153  144.4984  165.3665 H       1  UNL1        0.1192
      9 H         138.7307  145.2704  164.3655 H       1  UNL1        0.1192
     10 C         140.8461  144.7787  158.9114 C.2     1  UNL1        0.3205
     11 N         141.9167  145.6902  158.3889 N.2     1  UNL1        0.0097
     12 C         142.1115  145.8479  156.9101 C.2     1  UNL1        0.4717
     13 N         141.2357  145.0942  155.9535 N.2     1  UNL1        0.0158
     14 C         140.1651  144.1827  156.4760 C.2     1  UNL1        0.3714
     15 N         139.1565  143.3171  155.7806 N.2     1  UNL1       -0.0339
     16 C         138.3384  142.6244  156.8298 C.2     1  UNL1        0.2323
     17 C         138.8413  143.0618  158.1736 C.2     1  UNL1        0.0486
     18 C         139.9703  144.0249  157.9549 C.3     1  UNL1        0.2428
     19 C         140.5080  143.3062  164.4394 C.2     1  UNL1        0.2352
     20 O         140.0197  143.5796  165.8310 O.2     1  UNL1       -0.2737
     21 N         141.2427  142.0334  164.1389 N.am    1  UNL1       -0.3012
     22 H         141.5633  141.8540  163.2255 H       1  UNL1        0.1497
     23 C         141.4892  141.0341  165.2301 C.3     1  UNL1        0.0942
     24 C         140.3504  140.2264  165.7785 C.ar    1  UNL1       -0.0045
     25 C         139.6058  139.2777  164.8864 C.ar    1  UNL1       -0.0018
     26 C         138.4671  138.4699  165.4348 C.ar    1  UNL1        0.0111
     27 C         138.0729  138.6108  166.8752 C.ar    1  UNL1        0.0577
     28 CL        136.9341  137.8030  167.4236 Cl      1  UNL1       -0.0822
     29 C         138.8174  139.5595  167.7672 C.ar    1  UNL1        0.0111
     30 C         139.9562  140.3673  167.2189 C.ar    1  UNL1       -0.0018
     31 C         142.8743  140.8426  165.7729 C.3     1  UNL1        0.0267
     32 C         143.6900  139.6582  165.3462 C.3     1  UNL1        0.0338
     33 C         143.4074  138.3045  165.9273 C.3     1  UNL1        0.1372
     34 O         144.3261  137.7262  166.9625 O.3     1  UNL1       -0.3820
     35 H         145.1940  137.5544  166.5648 H       1  UNL1        0.2104
@<TRIPOS>BOND
     1     1     2    1
     2     2    19    1
     3    19    20    2
     4    19    21   am
     5    21    23    1
     6    23    31    1
     7    31    32    1
     8    32    33    1
     9    33    34    1
    10    23    24    1
    11    24    25   ar
    12    25    26   ar
    13    26    27   ar
    14    27    28    1
    15    27    29   ar
    16    29    30   ar
    17     2     3    1
    18     3     4    1
    19     4     5    1
    20     5    10    1
    21    10    11    2
    22    11    12    1
    23    12    13    2
    24    13    14    1
    25    14    15    2
    26    15    16    1
    27    16    17    2
    28    17    18    1
    29     5     6    1
    30     6     7    1
    31     7     2    1
    32    30    24   ar
    33    18    10    1
    34    18    14    1
    35     1     8    1
    36     1     9    1
    37    21    22    1
    38    34    35    1
@<TRIPOS>MOLECULE
*****
 35 38 0 0 0
SMALL
GASTEIGER

@<TRIPOS>ATOM
      1 N         142.9158  138.4700  164.3945 N.3     1  UNL1       -0.3162
      2 C         142.2577  138.8243  163.0940 C.3     1  UNL1        0.1166
      3 C         141.2034  139.2623  162.1210 C.3     1  UNL1        0.0739
      4 C         141.5186  139.3363  160.6565 C.3     1  UNL1        0.2039
      5 N         142.8883  138.9724  160.1647 N.pl3   1  UNL1       -0.1931
      6 C         143.9426  138.5344  161.1376 C.3     1  UNL1        0.2039
      7 C         143.6273  138.4604  162.6023 C.3     1  UNL1        0.0739
      8 H         142.2477  138.5865  165.1564 H       1  UNL1        0.1192
      9 H         143.7169  139.0823  164.5481 H       1  UNL1        0.1192
     10 C         143.2035  139.0464  158.7001 C.2     1  UNL1        0.3205
     11 N         142.9369  137.8652  157.8149 N.2     1  UNL1        0.0097
     12 C         143.2521  137.9393  156.3503 C.2     1  UNL1        0.4717
     13 N         143.8340  139.1946  155.7708 N.2     1  UNL1        0.0158
     14 C         144.1006  140.3758  156.6560 C.2     1  UNL1        0.3714
     15 N         144.6640  141.7365  156.3713 N.2     1  UNL1       -0.0339
     16 C         144.6969  142.5034  157.6600 C.2     1  UNL1        0.2323
     17 C         144.1539  141.6167  158.7412 C.2     1  UNL1        0.0486
     18 C         143.7854  140.3017  158.1207 C.3     1  UNL1        0.2428
     19 C         141.1166  139.0652  164.0373 C.2     1  UNL1        0.2352
     20 O         140.4899  137.9135  164.7659 O.2     1  UNL1       -0.2737
     21 N         140.6023  140.4578  164.2520 N.am    1  UNL1       -0.3012
     22 H         141.0137  141.2137  163.7738 H       1  UNL1        0.1497
     23 C         139.4612  140.6988  165.1953 C.3     1  UNL1        0.0942
     24 C         139.7336  141.0324  166.6321 C.ar    1  UNL1       -0.0045
     25 C         140.3383  142.3568  166.9930 C.ar    1  UNL1       -0.0018
     26 C         140.6107  142.6903  168.4299 C.ar    1  UNL1        0.0111
     27 C         140.2783  141.6995  169.5058 C.ar    1  UNL1        0.0577
     28 CL        140.5507  142.0331  170.9427 Cl      1  UNL1       -0.0822
     29 C         139.6736  140.3751  169.1450 C.ar    1  UNL1        0.0111
     30 C         139.4012  140.0415  167.7081 C.ar    1  UNL1       -0.0018
     31 C         138.0478  140.6062  164.7017 C.3     1  UNL1        0.0267
     32 C         137.6830  141.1717  163.3611 C.3     1  UNL1        0.0338
     33 C         137.6336  142.6576  163.1621 C.3     1  UNL1        0.1372
     34 O         137.5069  143.2252  161.7795 O.3     1  UNL1       -0.3820
     35 H         138.3070  143.0198  161.2710 H       1  UNL1        0.2104
@<TRIPOS>BOND
     1     1     2    1
     2     2    19    1
     3    19    20    2
     4    19    21   am
     5    21    23    1
     6    23    31    1
     7    31    32    1
     8    32    33    1
     9    33    34    1
    10    23    24    1
    11    24    25   ar
    12    25    26   ar
    13    26    27   ar
    14    27    28    1
    15    27    29   ar
    16    29    30   ar
    17     2     3    1
    18     3     4    1
    19     4     5    1
    20     5    10    1
    21    10    11    2
    22    11    12    1
    23    12    13    2
    24    13    14    1
    25    14    15    2
    26    15    16    1
    27    16    17    2
    28    17    18    1
    29     5     6    1
    30     6     7    1
    31     7     2    1
    32    30    24   ar
    33    18    10    1
    34    18    14    1
    35     1     8    1
    36     1     9    1
    37    21    22    1
    38    34    35    1
@<TRIPOS>MOLECULE
*****
 35 38 0 0 0
SMALL
GASTEIGER

@<TRIPOS>ATOM
      1 N         141.8808  138.3234  159.4832 N.3     1  UNL1       -0.3162
      2 C         140.6090  139.1071  159.6190 C.3     1  UNL1        0.1166
      3 C         139.4572  139.8252  160.2575 C.3     1  UNL1        0.0739
      4 C         138.4017  140.4599  159.4014 C.3     1  UNL1        0.2039
      5 N         138.4980  140.3766  157.9067 N.pl3   1  UNL1       -0.1931
      6 C         139.6498  139.6585  157.2682 C.3     1  UNL1        0.2039
      7 C         140.7053  139.0238  158.1244 C.3     1  UNL1        0.0739
      8 H         142.2501  138.1114  160.4100 H       1  UNL1        0.1192
      9 H         142.5645  138.8725  158.9621 H       1  UNL1        0.1192
     10 C         137.4424  141.0114  157.0507 C.2     1  UNL1        0.3205
     11 N         136.1722  140.2709  156.7536 N.2     1  UNL1        0.0097
     12 C         135.1167  140.9056  155.8975 C.2     1  UNL1        0.4717
     13 N         135.3313  142.2810  155.3385 N.2     1  UNL1        0.0158
     14 C         136.6014  143.0215  155.6356 C.2     1  UNL1        0.3714
     15 N         137.0905  144.3794  155.2273 N.2     1  UNL1       -0.0339
     16 C         138.4483  144.5839  155.8310 C.2     1  UNL1        0.2323
     17 C         138.7985  143.3524  156.6124 C.2     1  UNL1        0.0486
     18 C         137.6570  142.3867  156.4917 C.3     1  UNL1        0.2428
     19 C         140.9544  138.9182  161.0664 C.2     1  UNL1        0.2352
     20 O         141.4792  137.5975  161.5462 O.2     1  UNL1       -0.2737
     21 N         140.7748  140.0503  162.0340 N.am    1  UNL1       -0.3012
     22 H         140.4304  140.9171  161.7191 H       1  UNL1        0.1497
     23 C         141.1202  139.8615  163.4815 C.3     1  UNL1        0.0942
     24 C         140.0895  139.3356  164.4360 C.ar    1  UNL1       -0.0045
     25 C         139.3640  140.2778  165.3504 C.ar    1  UNL1       -0.0018
     26 C         138.3333  139.7519  166.3049 C.ar    1  UNL1        0.0111
     27 C         138.0282  138.2838  166.3451 C.ar    1  UNL1        0.0577
     28 CL        136.9975  137.7579  167.2997 Cl      1  UNL1       -0.0822
     29 C         138.7537  137.3416  165.4308 C.ar    1  UNL1        0.0111
     30 C         139.7844  137.8675  164.4762 C.ar    1  UNL1       -0.0018
     31 C         142.4962  140.1987  163.9744 C.3     1  UNL1        0.0267
     32 C         143.6322  139.2488  163.7352 C.3     1  UNL1        0.0338
     33 C         144.4520  139.3600  162.4839 C.3     1  UNL1        0.1372
     34 O         144.3803  138.2831  161.4423 O.3     1  UNL1       -0.3820
     35 H         144.7451  137.4598  161.8028 H       1  UNL1        0.2104
@<TRIPOS>BOND
     1     1     2    1
     2     2    19    1
     3    19    20    2
     4    19    21   am
     5    21    23    1
     6    23    31    1
     7    31    32    1
     8    32    33    1
     9    33    34    1
    10    23    24    1
    11    24    25   ar
    12    25    26   ar
    13    26    27   ar
    14    27    28    1
    15    27    29   ar
    16    29    30   ar
    17     2     3    1
    18     3     4    1
    19     4     5    1
    20     5    10    1
    21    10    11    2
    22    11    12    1
    23    12    13    2
    24    13    14    1
    25    14    15    2
    26    15    16    1
    27    16    17    2
    28    17    18    1
    29     5     6    1
    30     6     7    1
    31     7     2    1
    32    30    24   ar
    33    18    10    1
    34    18    14    1
    35     1     8    1
    36     1     9    1
    37    21    22    1
    38    34    35    1
@<TRIPOS>MOLECULE
*****
 35 38 0 0 0
SMALL
GASTEIGER

@<TRIPOS>ATOM
      1 N         140.4185  143.8441  164.9155 N.3     1  UNL1       -0.3162
      2 C         141.0176  143.4076  163.6115 C.3     1  UNL1        0.1166
      3 C         141.8253  142.6158  162.6262 C.3     1  UNL1        0.0739
      4 C         141.8246  142.9988  161.1760 C.3     1  UNL1        0.2039
      5 N         141.0160  144.1736  160.7109 N.pl3   1  UNL1       -0.1931
      6 C         140.2083  144.9654  161.6961 C.3     1  UNL1        0.2039
      7 C         140.2092  144.5824  163.1464 C.3     1  UNL1        0.0739
      8 H         140.7412  143.2276  165.6612 H       1  UNL1        0.1192
      9 H         139.4013  143.7997  164.8540 H       1  UNL1        0.1192
     10 C         141.0153  144.5566  159.2606 C.2     1  UNL1        0.3205
     11 N         142.0273  145.5352  158.7428 N.2     1  UNL1        0.0097
     12 C         142.0265  145.9181  157.2926 C.2     1  UNL1        0.4717
     13 N         141.0137  145.3225  156.3600 N.2     1  UNL1        0.0158
     14 C         140.0017  144.3439  156.8778 C.2     1  UNL1        0.3714
     15 N         138.8897  143.5978  156.2020 N.2     1  UNL1       -0.0339
     16 C         138.2032  142.7538  157.2346 C.2     1  UNL1        0.2323
     17 C         138.8910  142.9782  158.5486 C.2     1  UNL1        0.0486
     18 C         140.0025  143.9609  158.3281 C.3     1  UNL1        0.2428
     19 C         141.6180  142.3844  164.5294 C.2     1  UNL1        0.2352
     20 O         142.6048  142.8046  165.5780 O.2     1  UNL1       -0.2737
     21 N         141.2316  140.9410  164.3985 N.am    1  UNL1       -0.3012
     22 H         140.5840  140.6652  163.7102 H       1  UNL1        0.1497
     23 C         141.8320  139.9176  165.3163 C.3     1  UNL1        0.0942
     24 C         141.4540  139.8983  166.7678 C.ar    1  UNL1       -0.0045
     25 C         140.0305  140.1384  167.1753 C.ar    1  UNL1       -0.0018
     26 C         139.6525  140.1190  168.6267 C.ar    1  UNL1        0.0111
     27 C         140.6979  139.8597  169.6706 C.ar    1  UNL1        0.0577
     28 CL        140.3199  139.8404  171.1221 Cl      1  UNL1       -0.0822
     29 C         142.1214  139.6197  169.2632 C.ar    1  UNL1        0.0111
     30 C         142.4995  139.6390  167.8117 C.ar    1  UNL1       -0.0018
     31 C         142.8104  138.9137  164.7827 C.3     1  UNL1        0.0267
     32 C         144.0975  139.3753  164.1658 C.3     1  UNL1        0.0338
     33 C         144.1602  139.6752  162.6974 C.3     1  UNL1        0.1372
     34 O         144.6224  138.6207  161.7358 O.3     1  UNL1       -0.3820
     35 H         145.5570  138.4201  161.9007 H       1  UNL1        0.2104
@<TRIPOS>BOND
     1     1     2    1
     2     2    19    1
     3    19    20    2
     4    19    21   am
     5    21    23    1
     6    23    31    1
     7    31    32    1
     8    32    33    1
     9    33    34    1
    10    23    24    1
    11    24    25   ar
    12    25    26   ar
    13    26    27   ar
    14    27    28    1
    15    27    29   ar
    16    29    30   ar
    17     2     3    1
    18     3     4    1
    19     4     5    1
    20     5    10    1
    21    10    11    2
    22    11    12    1
    23    12    13    2
    24    13    14    1
    25    14    15    2
    26    15    16    1
    27    16    17    2
    28    17    18    1
    29     5     6    1
    30     6     7    1
    31     7     2    1
    32    30    24   ar
    33    18    10    1
    34    18    14    1
    35     1     8    1
    36     1     9    1
    37    21    22    1
    38    34    35    1
