@<TRIPOS>MOLECULE
*****
 35 40 0 0 0
SMALL
GASTEIGER

@<TRIPOS>ATOM
      1 C         139.5942  140.6624  164.9645 C.3     1  UNL1        0.1531
      2 C         140.7619  140.4013  164.0599 C.3     1  UNL1        0.1067
      3 N         140.5402  140.1885  162.5917 N.3     1  UNL1       -0.2665
      4 C         141.7079  139.9274  161.6870 C.3     1  UNL1        0.0940
      5 C         141.4863  139.7146  160.2188 C.3     1  UNL1        0.1107
      6 N         140.0970  139.7627  159.6553 N.am    1  UNL1       -0.2764
      7 C         139.8754  139.5499  158.1871 C.2     1  UNL1        0.2302
      8 O         138.4861  139.5980  157.6235 O.2     1  UNL1       -0.2745
      9 C         138.9294  140.0238  160.5599 C.3     1  UNL1        0.1119
     10 C         139.1510  140.2366  162.0282 C.3     1  UNL1        0.1075
     11 C         137.9833  140.4977  162.9328 C.3     1  UNL1        0.1601
     12 O         138.2049  140.7105  164.4010 O.3     1  UNL1       -0.3489
     13 C         140.0499  143.4307  166.0269 C.3     1  UNL1        0.0306
     14 C         140.0436  142.2594  166.9639 C.ar    1  UNL1       -0.0238
     15 C         139.8158  140.8752  166.4327 C.ar    1  UNL1        0.0018
     16 C         139.8095  139.7039  167.3697 C.ar    1  UNL1       -0.0020
     17 C         140.0311  139.9167  168.8379 C.ar    1  UNL1        0.0060
     18 C         140.2590  141.3009  169.3691 C.ar    1  UNL1        0.0748
     19 C         140.2652  142.4723  168.4322 C.ar    1  UNL1        0.0233
     20 C         140.5139  143.7110  169.2404 C.3     1  UNL1        0.2352
     21 O         140.6614  143.3054  170.6770 O.3     1  UNL1       -0.4404
     22 C         140.5038  141.8158  170.7565 C.2     1  UNL1        0.3413
     23 O         140.5780  140.9868  172.0044 O.2     1  UNL1       -0.2449
     24 C         141.0431  139.2888  157.2824 C.3     1  UNL1        0.1131
     25 C         141.4151  137.8802  156.9256 C.ar    1  UNL1        0.0062
     26 C         140.6273  137.1363  155.8883 C.ar    1  UNL1        0.0009
     27 C         140.9993  135.7277  155.5314 C.ar    1  UNL1        0.0386
     28 C         142.1591  135.0630  156.2118 C.ar    1  UNL1        0.1672
     29 N         142.9469  135.8068  157.2490 N.ar    1  UNL1       -0.2252
     30 C         142.5749  137.2155  157.6060 C.ar    1  UNL1        0.0968
     31 N         142.5311  133.6544  155.8549 N.ar    1  UNL1       -0.1708
     32 C         142.9300  133.1656  154.4940 C.ar    1  UNL1        0.2272
     33 N         143.2150  131.6963  154.5942 N.ar    1  UNL1       -0.1044
     34 N         142.9923  131.2770  156.0172 N.ar    1  UNL1       -0.0222
     35 N         142.5696  132.4871  156.7963 N.ar    1  UNL1       -0.0371
@<TRIPOS>BOND
     1    13    14    1
     2    14    15   ar
     3     1    15    1
     4     1     2    1
     5     2     3    1
     6     3     4    1
     7     4     5    1
     8     5     6    1
     9     6     7   am
    10     7     8    2
    11     7    24    1
    12    24    25    1
    13    25    26   ar
    14    26    27   ar
    15    27    28   ar
    16    28    31    1
    17    31    32   ar
    18    32    33   ar
    19    33    34   ar
    20    34    35   ar
    21    28    29   ar
    22    29    30   ar
    23     6     9    1
    24    10     9    1
    25    10    11    1
    26    11    12    1
    27    15    16   ar
    28    16    17   ar
    29    17    18   ar
    30    18    19   ar
    31    19    20    1
    32    20    21    1
    33    21    22    1
    34    22    23    2
    35    19    14   ar
    36    12     1    1
    37    22    18    1
    38    10     3    1
    39    30    25   ar
    40    35    31   ar
@<TRIPOS>MOLECULE
*****
 35 40 0 0 0
SMALL
GASTEIGER

@<TRIPOS>ATOM
      1 C         139.8748  139.6423  163.7273 C.3     1  UNL1        0.1531
      2 C         140.9501  138.7260  163.2233 C.3     1  UNL1        0.1067
      3 N         141.2012  138.6035  161.7496 N.3     1  UNL1       -0.2665
      4 C         142.2766  137.6872  161.2455 C.3     1  UNL1        0.0940
      5 C         142.5276  137.5647  159.7718 C.3     1  UNL1        0.1107
      6 N         141.7034  138.3586  158.8020 N.am    1  UNL1       -0.2764
      7 C         141.9545  138.2361  157.3282 C.2     1  UNL1        0.2302
      8 O         141.1303  139.0299  156.3585 O.2     1  UNL1       -0.2745
      9 C         140.6281  139.2749  159.3060 C.3     1  UNL1        0.1119
     10 C         140.3770  139.3974  160.7798 C.3     1  UNL1        0.1075
     11 C         139.3017  140.3137  161.2838 C.3     1  UNL1        0.1601
     12 O         139.0506  140.4362  162.7575 O.3     1  UNL1       -0.3489
     13 C         141.5401  141.5096  165.3826 C.3     1  UNL1        0.0306
     14 C         140.4564  140.6984  166.0287 C.ar    1  UNL1       -0.0238
     15 C         139.6237  139.7648  165.2011 C.ar    1  UNL1        0.0018
     16 C         138.5399  138.9537  165.8472 C.ar    1  UNL1       -0.0020
     17 C         138.2888  139.0761  167.3209 C.ar    1  UNL1        0.0060
     18 C         139.1214  140.0098  168.1486 C.ar    1  UNL1        0.0748
     19 C         140.2052  140.8209  167.5025 C.ar    1  UNL1        0.0233
     20 C         140.8594  141.6514  168.5665 C.3     1  UNL1        0.2352
     21 O         140.1800  141.3536  169.8702 O.3     1  UNL1       -0.4404
     22 C         139.1058  140.3390  169.6118 C.2     1  UNL1        0.3413
     23 O         138.1789  139.7560  170.6370 O.2     1  UNL1       -0.2449
     24 C         143.0298  137.3198  156.8243 C.3     1  UNL1        0.1131
     25 C         142.7096  135.8880  156.5122 C.ar    1  UNL1        0.0062
     26 C         141.8271  135.5538  155.3461 C.ar    1  UNL1        0.0009
     27 C         141.5069  134.1220  155.0340 C.ar    1  UNL1        0.0386
     28 C         142.0691  133.0244  155.8879 C.ar    1  UNL1        0.1672
     29 N         142.9516  133.3585  157.0539 N.ar    1  UNL1       -0.2252
     30 C         143.2718  134.7904  157.3661 C.ar    1  UNL1        0.0968
     31 N         141.7489  131.5926  155.5758 N.ar    1  UNL1       -0.1708
     32 C         140.6385  131.1103  154.6901 C.ar    1  UNL1        0.2272
     33 N         140.6862  129.6113  154.6615 N.ar    1  UNL1       -0.1044
     34 N         141.8261  129.1672  155.5295 N.ar    1  UNL1       -0.0222
     35 N         142.4829  130.3917  156.0945 N.ar    1  UNL1       -0.0371
@<TRIPOS>BOND
     1    13    14    1
     2    14    15   ar
     3     1    15    1
     4     1     2    1
     5     2     3    1
     6     3     4    1
     7     4     5    1
     8     5     6    1
     9     6     7   am
    10     7     8    2
    11     7    24    1
    12    24    25    1
    13    25    26   ar
    14    26    27   ar
    15    27    28   ar
    16    28    31    1
    17    31    32   ar
    18    32    33   ar
    19    33    34   ar
    20    34    35   ar
    21    28    29   ar
    22    29    30   ar
    23     6     9    1
    24    10     9    1
    25    10    11    1
    26    11    12    1
    27    15    16   ar
    28    16    17   ar
    29    17    18   ar
    30    18    19   ar
    31    19    20    1
    32    20    21    1
    33    21    22    1
    34    22    23    2
    35    19    14   ar
    36    12     1    1
    37    22    18    1
    38    10     3    1
    39    30    25   ar
    40    35    31   ar
@<TRIPOS>MOLECULE
*****
 35 40 0 0 0
SMALL
GASTEIGER

@<TRIPOS>ATOM
      1 C         139.8722  140.3357  164.2535 C.3     1  UNL1        0.1531
      2 C         141.0815  140.0583  163.4107 C.3     1  UNL1        0.1067
      3 N         140.9178  139.5932  161.9941 N.3     1  UNL1       -0.2665
      4 C         142.1272  139.3157  161.1512 C.3     1  UNL1        0.0940
      5 C         141.9634  138.8506  159.7346 C.3     1  UNL1        0.1107
      6 N         140.5903  138.6629  159.1608 N.am    1  UNL1       -0.2764
      7 C         140.4265  138.1978  157.7442 C.2     1  UNL1        0.2302
      8 O         139.0534  138.0101  157.1704 O.2     1  UNL1       -0.2745
      9 C         139.3809  138.9404  160.0037 C.3     1  UNL1        0.1119
     10 C         139.5446  139.4055  161.4203 C.3     1  UNL1        0.1075
     11 C         138.3352  139.6829  162.2632 C.3     1  UNL1        0.1601
     12 O         138.4990  140.1480  163.6798 O.3     1  UNL1       -0.3489
     13 C         138.4868  138.8789  166.4803 C.3     1  UNL1        0.0306
     14 C         139.3432  140.0725  166.7836 C.ar    1  UNL1       -0.0238
     15 C         140.0359  140.8009  165.6702 C.ar    1  UNL1        0.0018
     16 C         140.8923  141.9944  165.9735 C.ar    1  UNL1       -0.0020
     17 C         141.0561  142.4596  167.3901 C.ar    1  UNL1        0.0060
     18 C         140.3634  141.7312  168.5035 C.ar    1  UNL1        0.0748
     19 C         139.5069  140.5376  168.2003 C.ar    1  UNL1        0.0233
     20 C         138.9519  140.0243  169.4957 C.3     1  UNL1        0.2352
     21 O         139.4652  140.9005  170.5996 O.3     1  UNL1       -0.4404
     22 C         140.3376  141.9554  169.9863 C.2     1  UNL1        0.3413
     23 O         141.0577  143.0436  170.7262 O.2     1  UNL1       -0.2449
     24 C         141.6359  137.9204  156.9013 C.3     1  UNL1        0.1131
     25 C         142.0849  136.5070  156.6762 C.ar    1  UNL1        0.0062
     26 C         141.4111  135.6627  155.6355 C.ar    1  UNL1        0.0009
     27 C         141.8601  134.2493  155.4104 C.ar    1  UNL1        0.0386
     28 C         142.9830  133.6802  156.2260 C.ar    1  UNL1        0.1672
     29 N         143.6569  134.5245  157.2667 N.ar    1  UNL1       -0.2252
     30 C         143.2078  135.9379  157.4918 C.ar    1  UNL1        0.0968
     31 N         143.4321  132.2669  156.0008 N.ar    1  UNL1       -0.1708
     32 C         142.5394  131.0688  155.8672 C.ar    1  UNL1        0.2272
     33 N         143.4083  129.8648  155.6536 N.ar    1  UNL1       -0.1044
     34 N         144.8380  130.3188  155.6552 N.ar    1  UNL1       -0.0222
     35 N         144.8527  131.8033  155.8698 N.ar    1  UNL1       -0.0371
@<TRIPOS>BOND
     1    13    14    1
     2    14    15   ar
     3     1    15    1
     4     1     2    1
     5     2     3    1
     6     3     4    1
     7     4     5    1
     8     5     6    1
     9     6     7   am
    10     7     8    2
    11     7    24    1
    12    24    25    1
    13    25    26   ar
    14    26    27   ar
    15    27    28   ar
    16    28    31    1
    17    31    32   ar
    18    32    33   ar
    19    33    34   ar
    20    34    35   ar
    21    28    29   ar
    22    29    30   ar
    23     6     9    1
    24    10     9    1
    25    10    11    1
    26    11    12    1
    27    15    16   ar
    28    16    17   ar
    29    17    18   ar
    30    18    19   ar
    31    19    20    1
    32    20    21    1
    33    21    22    1
    34    22    23    2
    35    19    14   ar
    36    12     1    1
    37    22    18    1
    38    10     3    1
    39    30    25   ar
    40    35    31   ar
@<TRIPOS>MOLECULE
*****
 35 40 0 0 0
SMALL
GASTEIGER

@<TRIPOS>ATOM
      1 C         143.6845  140.1752  158.2484 C.3     1  UNL1        0.1531
      2 C         142.8978  141.1110  159.1174 C.3     1  UNL1        0.1067
      3 N         141.9664  140.5638  160.1580 N.3     1  UNL1       -0.2665
      4 C         141.1797  141.4997  161.0271 C.3     1  UNL1        0.0940
      5 C         140.2483  140.9525  162.0678 C.3     1  UNL1        0.1107
      6 N         140.1037  139.4694  162.2395 N.am    1  UNL1       -0.2764
      7 C         139.1722  138.9221  163.2802 C.2     1  UNL1        0.2302
      8 O         139.0276  137.4390  163.4519 O.2     1  UNL1       -0.2745
      9 C         140.8903  138.5335  161.3705 C.3     1  UNL1        0.1119
     10 C         141.8218  139.0807  160.3297 C.3     1  UNL1        0.1075
     11 C         142.6085  138.1448  159.4607 C.3     1  UNL1        0.1601
     12 O         143.5398  138.6921  158.4200 O.3     1  UNL1       -0.3489
     13 C         143.6076  139.0962  155.4502 C.3     1  UNL1        0.0306
     14 C         144.5775  140.1829  155.8086 C.ar    1  UNL1       -0.0238
     15 C         144.6159  140.7224  157.2076 C.ar    1  UNL1        0.0018
     16 C         145.5857  141.8091  157.5660 C.ar    1  UNL1       -0.0020
     17 C         146.5171  142.3563  156.5254 C.ar    1  UNL1        0.0060
     18 C         146.4787  141.8168  155.1262 C.ar    1  UNL1        0.0748
     19 C         145.5089  140.7301  154.7678 C.ar    1  UNL1        0.0233
     20 C         145.6995  140.3986  153.3175 C.3     1  UNL1        0.2352
     21 O         146.7871  141.2803  152.7794 O.3     1  UNL1       -0.4404
     22 C         147.2687  142.1569  153.8974 C.2     1  UNL1        0.3413
     23 O         148.3504  143.1918  153.8029 O.2     1  UNL1       -0.2449
     24 C         138.3855  139.8580  164.1492 C.3     1  UNL1        0.1131
     25 C         138.8629  140.1738  165.5357 C.ar    1  UNL1        0.0062
     26 C         139.6224  141.4406  165.7971 C.ar    1  UNL1        0.0009
     27 C         140.0997  141.7564  167.1836 C.ar    1  UNL1        0.0386
     28 C         139.8175  140.8054  168.3088 C.ar    1  UNL1        0.1672
     29 N         139.0580  139.5386  168.0474 N.ar    1  UNL1       -0.2252
     30 C         138.5806  139.2228  166.6609 C.ar    1  UNL1        0.0968
     31 N         140.2948  141.1212  169.6953 N.ar    1  UNL1       -0.1708
     32 C         141.5051  140.5405  170.3648 C.ar    1  UNL1        0.2272
     33 N         141.6039  141.1336  171.7391 N.ar    1  UNL1       -0.1044
     34 N         140.4548  142.0808  171.9189 N.ar    1  UNL1       -0.0222
     35 N         139.6458  142.0732  170.6558 N.ar    1  UNL1       -0.0371
@<TRIPOS>BOND
     1    13    14    1
     2    14    15   ar
     3     1    15    1
     4     1     2    1
     5     2     3    1
     6     3     4    1
     7     4     5    1
     8     5     6    1
     9     6     7   am
    10     7     8    2
    11     7    24    1
    12    24    25    1
    13    25    26   ar
    14    26    27   ar
    15    27    28   ar
    16    28    31    1
    17    31    32   ar
    18    32    33   ar
    19    33    34   ar
    20    34    35   ar
    21    28    29   ar
    22    29    30   ar
    23     6     9    1
    24    10     9    1
    25    10    11    1
    26    11    12    1
    27    15    16   ar
    28    16    17   ar
    29    17    18   ar
    30    18    19   ar
    31    19    20    1
    32    20    21    1
    33    21    22    1
    34    22    23    2
    35    19    14   ar
    36    12     1    1
    37    22    18    1
    38    10     3    1
    39    30    25   ar
    40    35    31   ar
@<TRIPOS>MOLECULE
*****
 35 40 0 0 0
SMALL
GASTEIGER

@<TRIPOS>ATOM
      1 C         142.6429  140.6809  164.9046 C.3     1  UNL1        0.1531
      2 C         141.7473  139.8786  164.0078 C.3     1  UNL1        0.1067
      3 N         142.1069  139.6889  162.5640 N.3     1  UNL1       -0.2665
      4 C         141.2113  138.8866  161.6672 C.3     1  UNL1        0.0940
      5 C         141.5708  138.6969  160.2233 C.3     1  UNL1        0.1107
      6 N         142.8260  139.3095  159.6763 N.am    1  UNL1       -0.2764
      7 C         143.1855  139.1197  158.2323 C.2     1  UNL1        0.2302
      8 O         144.4407  139.7323  157.6853 O.2     1  UNL1       -0.2745
      9 C         143.7216  140.1117  160.5730 C.3     1  UNL1        0.1119
     10 C         143.3621  140.3015  162.0169 C.3     1  UNL1        0.1075
     11 C         144.2577  141.1038  162.9136 C.3     1  UNL1        0.1601
     12 O         143.8981  141.2935  164.3575 O.3     1  UNL1       -0.3489
     13 C         141.0498  143.0778  165.7513 C.3     1  UNL1        0.0306
     14 C         141.4868  142.0691  166.7718 C.ar    1  UNL1       -0.0238
     15 C         142.2834  140.8707  166.3485 C.ar    1  UNL1        0.0018
     16 C         142.7205  139.8619  167.3690 C.ar    1  UNL1       -0.0020
     17 C         142.3610  140.0516  168.8128 C.ar    1  UNL1        0.0060
     18 C         141.5644  141.2501  169.2362 C.ar    1  UNL1        0.0748
     19 C         141.1273  142.2588  168.2157 C.ar    1  UNL1        0.0233
     20 C         140.3575  143.3327  168.9256 C.3     1  UNL1        0.2352
     21 O         140.3187  142.9877  170.3849 O.3     1  UNL1       -0.4404
     22 C         141.0647  141.7006  170.5768 C.2     1  UNL1        0.3413
     23 O         141.2740  140.9889  171.8806 O.2     1  UNL1       -0.2449
     24 C         142.2899  138.3174  157.3356 C.3     1  UNL1        0.1131
     25 C         142.6917  136.9341  156.9175 C.ar    1  UNL1        0.0062
     26 C         142.7673  136.5830  155.4611 C.ar    1  UNL1        0.0009
     27 C         143.1691  135.1997  155.0429 C.ar    1  UNL1        0.0386
     28 C         143.4953  134.1674  156.0812 C.ar    1  UNL1        0.1672
     29 N         143.4198  134.5184  157.5375 N.ar    1  UNL1       -0.2252
     30 C         143.0180  135.9018  157.9557 C.ar    1  UNL1        0.0968
     31 N         143.8972  132.7840  155.6631 N.ar    1  UNL1       -0.1708
     32 C         144.8998  131.9098  156.3561 C.ar    1  UNL1        0.2272
     33 N         144.9892  130.6174  155.5998 N.ar    1  UNL1       -0.1044
     34 N         144.0417  130.6930  154.4393 N.ar    1  UNL1       -0.0222
     35 N         143.3668  132.0320  154.4784 N.ar    1  UNL1       -0.0371
@<TRIPOS>BOND
     1    13    14    1
     2    14    15   ar
     3     1    15    1
     4     1     2    1
     5     2     3    1
     6     3     4    1
     7     4     5    1
     8     5     6    1
     9     6     7   am
    10     7     8    2
    11     7    24    1
    12    24    25    1
    13    25    26   ar
    14    26    27   ar
    15    27    28   ar
    16    28    31    1
    17    31    32   ar
    18    32    33   ar
    19    33    34   ar
    20    34    35   ar
    21    28    29   ar
    22    29    30   ar
    23     6     9    1
    24    10     9    1
    25    10    11    1
    26    11    12    1
    27    15    16   ar
    28    16    17   ar
    29    17    18   ar
    30    18    19   ar
    31    19    20    1
    32    20    21    1
    33    21    22    1
    34    22    23    2
    35    19    14   ar
    36    12     1    1
    37    22    18    1
    38    10     3    1
    39    30    25   ar
    40    35    31   ar
@<TRIPOS>MOLECULE
*****
 35 40 0 0 0
SMALL
GASTEIGER

@<TRIPOS>ATOM
      1 C         142.1365  141.0397  164.9759 C.3     1  UNL1        0.1531
      2 C         141.1553  140.4863  163.9856 C.3     1  UNL1        0.1067
      3 N         141.5843  140.2205  162.5731 N.3     1  UNL1       -0.2665
      4 C         140.6031  139.6672  161.5826 C.3     1  UNL1        0.0940
      5 C         141.0321  139.4014  160.1701 C.3     1  UNL1        0.1107
      6 N         142.4425  139.6889  159.7480 N.am    1  UNL1       -0.2764
      7 C         142.8716  139.4230  158.3354 C.2     1  UNL1        0.2302
      8 O         144.2819  139.7106  157.9133 O.2     1  UNL1       -0.2745
      9 C         143.4238  140.2422  160.7384 C.3     1  UNL1        0.1119
     10 C         142.9947  140.5081  162.1510 C.3     1  UNL1        0.1075
     11 C         143.9760  141.0614  163.1413 C.3     1  UNL1        0.1601
     12 O         143.5469  141.3272  164.5538 O.3     1  UNL1       -0.3489
     13 C         142.9378  139.1538  167.1672 C.3     1  UNL1        0.0306
     14 C         142.1081  140.3626  167.4841 C.ar    1  UNL1       -0.0238
     15 C         141.7075  141.3055  166.3885 C.ar    1  UNL1        0.0018
     16 C         140.8777  142.5143  166.7054 C.ar    1  UNL1       -0.0020
     17 C         140.4487  142.7801  168.1179 C.ar    1  UNL1        0.0060
     18 C         140.8493  141.8372  169.2136 C.ar    1  UNL1        0.0748
     19 C         141.6790  140.6284  168.8967 C.ar    1  UNL1        0.0233
     20 C         141.9198  139.8831  170.1759 C.3     1  UNL1        0.2352
     21 O         141.2389  140.6313  171.2834 O.3     1  UNL1       -0.4404
     22 C         140.5773  141.8389  170.6886 C.2     1  UNL1        0.3413
     23 O         139.7831  142.8678  171.4376 O.2     1  UNL1       -0.2449
     24 C         141.8903  138.8697  157.3451 C.3     1  UNL1        0.1131
     25 C         141.9951  137.4398  156.9043 C.ar    1  UNL1        0.0062
     26 C         141.1208  136.9302  155.7970 C.ar    1  UNL1        0.0009
     27 C         141.2255  135.5003  155.3563 C.ar    1  UNL1        0.0386
     28 C         142.2046  134.5799  156.0228 C.ar    1  UNL1        0.1672
     29 N         143.0789  135.0893  157.1300 N.ar    1  UNL1       -0.2252
     30 C         142.9741  136.5193  157.5708 C.ar    1  UNL1        0.0968
     31 N         142.3094  133.1499  155.5821 N.ar    1  UNL1       -0.1708
     32 C         142.4104  132.6693  154.1648 C.ar    1  UNL1        0.2272
     33 N         142.4950  131.1718  154.1880 N.ar    1  UNL1       -0.1044
     34 N         142.4462  130.7270  155.6198 N.ar    1  UNL1       -0.0222
     35 N         142.3315  131.9495  156.4813 N.ar    1  UNL1       -0.0371
@<TRIPOS>BOND
     1    13    14    1
     2    14    15   ar
     3     1    15    1
     4     1     2    1
     5     2     3    1
     6     3     4    1
     7     4     5    1
     8     5     6    1
     9     6     7   am
    10     7     8    2
    11     7    24    1
    12    24    25    1
    13    25    26   ar
    14    26    27   ar
    15    27    28   ar
    16    28    31    1
    17    31    32   ar
    18    32    33   ar
    19    33    34   ar
    20    34    35   ar
    21    28    29   ar
    22    29    30   ar
    23     6     9    1
    24    10     9    1
    25    10    11    1
    26    11    12    1
    27    15    16   ar
    28    16    17   ar
    29    17    18   ar
    30    18    19   ar
    31    19    20    1
    32    20    21    1
    33    21    22    1
    34    22    23    2
    35    19    14   ar
    36    12     1    1
    37    22    18    1
    38    10     3    1
    39    30    25   ar
    40    35    31   ar
@<TRIPOS>MOLECULE
*****
 35 40 0 0 0
SMALL
GASTEIGER

@<TRIPOS>ATOM
      1 C         141.9652  139.9623  165.0859 C.3     1  UNL1        0.1531
      2 C         142.0340  141.0106  164.0153 C.3     1  UNL1        0.1067
      3 N         142.2637  140.6109  162.5880 N.3     1  UNL1       -0.2665
      4 C         142.3324  141.6593  161.5173 C.3     1  UNL1        0.0940
      5 C         142.5621  141.2596  160.0899 C.3     1  UNL1        0.1107
      6 N         142.7231  139.8116  159.7332 N.am    1  UNL1       -0.2764
      7 C         142.9528  139.4119  158.3057 C.2     1  UNL1        0.2302
      8 O         143.1138  137.9639  157.9489 O.2     1  UNL1       -0.2745
      9 C         142.6544  138.7632  160.8037 C.3     1  UNL1        0.1119
     10 C         142.4246  139.1629  162.2312 C.3     1  UNL1        0.1075
     11 C         142.3559  138.1146  163.3018 C.3     1  UNL1        0.1601
     12 O         142.1262  138.5143  164.7292 O.3     1  UNL1       -0.3489
     13 C         139.3401  139.3614  166.4081 C.3     1  UNL1        0.0306
     14 C         140.4230  140.0615  167.1744 C.ar    1  UNL1       -0.0238
     15 C         141.7355  140.3620  166.5134 C.ar    1  UNL1        0.0018
     16 C         142.8183  141.0621  167.2798 C.ar    1  UNL1       -0.0020
     17 C         142.5887  141.4618  168.7071 C.ar    1  UNL1        0.0060
     18 C         141.2761  141.1613  169.3682 C.ar    1  UNL1        0.0748
     19 C         140.1933  140.4612  168.6019 C.ar    1  UNL1        0.0233
     20 C         139.0119  140.2993  169.5118 C.3     1  UNL1        0.2352
     21 O         139.3645  140.8994  170.8405 O.3     1  UNL1       -0.4404
     22 C         140.7639  141.4321  170.7517 C.2     1  UNL1        0.3413
     23 O         141.5186  142.1157  171.8533 O.2     1  UNL1       -0.2449
     24 C         143.0216  140.4602  157.2351 C.3     1  UNL1        0.1131
     25 C         144.3462  140.8437  156.6449 C.ar    1  UNL1        0.0062
     26 C         144.7681  140.2808  155.3200 C.ar    1  UNL1        0.0009
     27 C         146.0927  140.6643  154.7298 C.ar    1  UNL1        0.0386
     28 C         146.9954  141.6105  155.4644 C.ar    1  UNL1        0.1672
     29 N         146.5736  142.1734  156.7892 N.ar    1  UNL1       -0.2252
     30 C         145.2489  141.7899  157.3795 C.ar    1  UNL1        0.0968
     31 N         148.3200  141.9939  154.8742 N.ar    1  UNL1       -0.1708
     32 C         148.5316  142.8942  153.6932 C.ar    1  UNL1        0.2272
     33 N         150.0081  143.0011  153.4504 N.ar    1  UNL1       -0.1044
     34 N         150.7089  142.1669  154.4815 N.ar    1  UNL1       -0.0222
     35 N         149.6657  141.5444  155.3614 N.ar    1  UNL1       -0.0371
@<TRIPOS>BOND
     1    13    14    1
     2    14    15   ar
     3     1    15    1
     4     1     2    1
     5     2     3    1
     6     3     4    1
     7     4     5    1
     8     5     6    1
     9     6     7   am
    10     7     8    2
    11     7    24    1
    12    24    25    1
    13    25    26   ar
    14    26    27   ar
    15    27    28   ar
    16    28    31    1
    17    31    32   ar
    18    32    33   ar
    19    33    34   ar
    20    34    35   ar
    21    28    29   ar
    22    29    30   ar
    23     6     9    1
    24    10     9    1
    25    10    11    1
    26    11    12    1
    27    15    16   ar
    28    16    17   ar
    29    17    18   ar
    30    18    19   ar
    31    19    20    1
    32    20    21    1
    33    21    22    1
    34    22    23    2
    35    19    14   ar
    36    12     1    1
    37    22    18    1
    38    10     3    1
    39    30    25   ar
    40    35    31   ar
@<TRIPOS>MOLECULE
*****
 35 40 0 0 0
SMALL
GASTEIGER

@<TRIPOS>ATOM
      1 C         139.8463  145.5434  157.0362 C.3     1  UNL1        0.1531
      2 C         140.7609  145.6118  158.2230 C.3     1  UNL1        0.1067
      3 N         140.8485  144.4521  159.1702 N.3     1  UNL1       -0.2665
      4 C         141.7632  144.5205  160.3571 C.3     1  UNL1        0.0940
      5 C         141.8508  143.3607  161.3043 C.3     1  UNL1        0.1107
      6 N         141.0237  142.1325  161.0646 N.am    1  UNL1       -0.2764
      7 C         141.1113  140.9727  162.0119 C.2     1  UNL1        0.2302
      8 O         140.2843  139.7445  161.7722 O.2     1  UNL1       -0.2745
      9 C         140.1091  142.0640  159.8778 C.3     1  UNL1        0.1119
     10 C         140.0214  143.2239  158.9305 C.3     1  UNL1        0.1075
     11 C         139.1068  143.1554  157.7437 C.3     1  UNL1        0.1601
     12 O         139.0192  144.3152  156.7965 O.3     1  UNL1       -0.3489
     13 C         141.3647  145.4856  154.4494 C.3     1  UNL1        0.0306
     14 C         140.5178  146.6743  154.7956 C.ar    1  UNL1       -0.0238
     15 C         139.7586  146.7032  156.0889 C.ar    1  UNL1        0.0018
     16 C         138.9118  147.8919  156.4350 C.ar    1  UNL1       -0.0020
     17 C         138.8242  149.0517  155.4879 C.ar    1  UNL1        0.0060
     18 C         139.5834  149.0228  154.1945 C.ar    1  UNL1        0.0748
     19 C         140.4302  147.8341  153.8483 C.ar    1  UNL1        0.0233
     20 C         141.0606  148.0877  152.5111 C.3     1  UNL1        0.2352
     21 O         140.6034  149.4331  152.0308 O.3     1  UNL1       -0.4404
     22 C         139.6904  150.0110  153.0712 C.2     1  UNL1        0.3413
     23 O         139.0049  151.3434  153.0006 O.2     1  UNL1       -0.2449
     24 C         142.0260  141.0411  163.1987 C.3     1  UNL1        0.1131
     25 C         141.4869  140.7929  164.5763 C.ar    1  UNL1        0.0062
     26 C         142.3338  140.0943  165.5985 C.ar    1  UNL1        0.0009
     27 C         141.7947  139.8461  166.9761 C.ar    1  UNL1        0.0386
     28 C         140.4088  140.2965  167.3315 C.ar    1  UNL1        0.1672
     29 N         139.5619  140.9950  166.3094 N.ar    1  UNL1       -0.2252
     30 C         140.1010  141.2433  164.9318 C.ar    1  UNL1        0.0968
     31 N         139.8697  140.0483  168.7091 N.ar    1  UNL1       -0.1708
     32 C         140.6722  140.0065  169.9757 C.ar    1  UNL1        0.2272
     33 N         139.7319  139.7307  171.1114 N.ar    1  UNL1       -0.1044
     34 N         138.3481  139.6021  170.5467 N.ar    1  UNL1       -0.0222
     35 N         138.4333  139.7984  169.0621 N.ar    1  UNL1       -0.0371
@<TRIPOS>BOND
     1    13    14    1
     2    14    15   ar
     3     1    15    1
     4     1     2    1
     5     2     3    1
     6     3     4    1
     7     4     5    1
     8     5     6    1
     9     6     7   am
    10     7     8    2
    11     7    24    1
    12    24    25    1
    13    25    26   ar
    14    26    27   ar
    15    27    28   ar
    16    28    31    1
    17    31    32   ar
    18    32    33   ar
    19    33    34   ar
    20    34    35   ar
    21    28    29   ar
    22    29    30   ar
    23     6     9    1
    24    10     9    1
    25    10    11    1
    26    11    12    1
    27    15    16   ar
    28    16    17   ar
    29    17    18   ar
    30    18    19   ar
    31    19    20    1
    32    20    21    1
    33    21    22    1
    34    22    23    2
    35    19    14   ar
    36    12     1    1
    37    22    18    1
    38    10     3    1
    39    30    25   ar
    40    35    31   ar
@<TRIPOS>MOLECULE
*****
 35 40 0 0 0
SMALL
GASTEIGER

@<TRIPOS>ATOM
      1 C         142.0132  140.6189  165.1091 C.3     1  UNL1        0.1531
      2 C         141.3812  141.5167  164.0871 C.3     1  UNL1        0.1067
      3 N         141.5246  141.2077  162.6263 N.3     1  UNL1       -0.2665
      4 C         140.8927  142.1055  161.6042 C.3     1  UNL1        0.0940
      5 C         141.0361  141.7965  160.1434 C.3     1  UNL1        0.1107
      6 N         141.8114  140.5897  159.7047 N.am    1  UNL1       -0.2764
      7 C         141.9548  140.2807  158.2438 C.2     1  UNL1        0.2302
      8 O         142.7302  139.0739  157.8050 O.2     1  UNL1       -0.2745
      9 C         142.4434  139.6919  160.7267 C.3     1  UNL1        0.1119
     10 C         142.3000  140.0009  162.1875 C.3     1  UNL1        0.1075
     11 C         142.9319  139.1031  163.2096 C.3     1  UNL1        0.1601
     12 O         142.7885  139.4121  164.6703 O.3     1  UNL1       -0.3489
     13 C         139.6068  139.6524  166.6176 C.3     1  UNL1        0.0306
     14 C         140.6666  140.4446  167.3242 C.ar    1  UNL1       -0.0238
     15 C         141.8698  140.9278  166.5700 C.ar    1  UNL1        0.0018
     16 C         142.9296  141.7200  167.2765 C.ar    1  UNL1       -0.0020
     17 C         142.7863  142.0290  168.7373 C.ar    1  UNL1        0.0060
     18 C         141.5830  141.5458  169.4916 C.ar    1  UNL1        0.0748
     19 C         140.5232  140.7536  168.7850 C.ar    1  UNL1        0.0233
     20 C         139.4564  140.4131  169.7829 C.3     1  UNL1        0.2352
     21 O         139.8569  140.9949  171.1063 O.3     1  UNL1       -0.4404
     22 C         141.1712  141.6949  170.9261 C.2     1  UNL1        0.3413
     23 O         141.9389  142.4172  171.9934 O.2     1  UNL1       -0.2449
     24 C         141.3229  141.1785  157.2218 C.3     1  UNL1        0.1131
     25 C         139.8524  141.0791  156.9430 C.ar    1  UNL1        0.0062
     26 C         138.9694  142.2759  157.1383 C.ar    1  UNL1        0.0009
     27 C         137.4989  142.1764  156.8595 C.ar    1  UNL1        0.0386
     28 C         136.9114  140.8803  156.3854 C.ar    1  UNL1        0.1672
     29 N         137.7943  139.6836  156.1900 N.ar    1  UNL1       -0.2252
     30 C         139.2649  139.7829  156.4688 C.ar    1  UNL1        0.0968
     31 N         135.4409  140.7808  156.1066 N.ar    1  UNL1       -0.1708
     32 C         134.6865  141.5543  155.0661 C.ar    1  UNL1        0.2272
     33 N         133.2459  141.1420  155.1358 N.ar    1  UNL1       -0.1044
     34 N         133.1100  140.1136  156.2194 N.ar    1  UNL1       -0.0222
     35 N         134.4666  139.8904  156.8193 N.ar    1  UNL1       -0.0371
@<TRIPOS>BOND
     1    13    14    1
     2    14    15   ar
     3     1    15    1
     4     1     2    1
     5     2     3    1
     6     3     4    1
     7     4     5    1
     8     5     6    1
     9     6     7   am
    10     7     8    2
    11     7    24    1
    12    24    25    1
    13    25    26   ar
    14    26    27   ar
    15    27    28   ar
    16    28    31    1
    17    31    32   ar
    18    32    33   ar
    19    33    34   ar
    20    34    35   ar
    21    28    29   ar
    22    29    30   ar
    23     6     9    1
    24    10     9    1
    25    10    11    1
    26    11    12    1
    27    15    16   ar
    28    16    17   ar
    29    17    18   ar
    30    18    19   ar
    31    19    20    1
    32    20    21    1
    33    21    22    1
    34    22    23    2
    35    19    14   ar
    36    12     1    1
    37    22    18    1
    38    10     3    1
    39    30    25   ar
    40    35    31   ar
