@<TRIPOS>MOLECULE
*****
 32 36 0 0 0
SMALL
GASTEIGER

@<TRIPOS>ATOM
      1 O         140.2909  142.0566  157.4480 O.2     1  UNL1       -0.2647
      2 C         139.7254  140.8356  158.1108 C.2     1  UNL1        0.3054
      3 N         139.1189  140.9379  159.4789 N.am    1  UNL1       -0.2719
      4 C         138.5534  139.7170  160.1417 C.3     1  UNL1        0.0976
      5 C         137.9468  139.8193  161.5098 C.3     1  UNL1        0.0651
      6 C         137.9058  141.1425  162.2150 C.3     1  UNL1        0.1693
      7 C         138.4714  142.3635  161.5521 C.3     1  UNL1        0.0651
      8 C         139.0779  142.2612  160.1841 C.3     1  UNL1        0.0976
      9 C         139.7664  139.5123  157.4056 C.ar    1  UNL1        0.3139
     10 N         140.9682  138.6261  157.2630 N.ar    1  UNL1       -0.1831
     11 C         140.5573  137.4090  156.4885 C.ar    1  UNL1        0.2037
     12 N         139.1016  137.5431  156.1524 N.ar    1  UNL1       -0.0554
     13 O         138.6128  138.8430  156.7192 O.2     1  UNL1       -0.3276
     14 C         141.4462  136.2597  156.1155 C.ar    1  UNL1        0.0391
     15 C         140.9853  135.2528  155.1038 C.ar    1  UNL1        0.0032
     16 C         141.8741  134.1035  154.7309 C.ar    1  UNL1        0.0001
     17 C         143.2238  133.9611  155.3697 C.ar    1  UNL1        0.0000
     18 C         143.6846  134.9680  156.3814 C.ar    1  UNL1        0.0001
     19 C         142.7958  136.1173  156.7543 C.ar    1  UNL1        0.0032
     20 O         137.2993  141.2448  163.5832 O.3     1  UNL1       -0.4791
     21 C         138.1307  140.9492  164.7962 C.ar    1  UNL1        0.1384
     22 C         139.1080  141.9685  165.3022 C.ar    1  UNL1        0.0366
     23 C         139.9393  141.6729  166.5151 C.ar    1  UNL1        0.0002
     24 C         139.7934  140.3580  167.2222 C.ar    1  UNL1       -0.0059
     25 C         138.8161  139.3388  166.7162 C.ar    1  UNL1        0.0002
     26 C         137.9847  139.6344  165.5032 C.ar    1  UNL1        0.0366
     27 C         140.6248  140.0624  168.4352 C.3     1  UNL1        0.0991
     28 N         141.5555  141.1056  168.9790 N.3     1  UNL1       -0.2690
     29 C         141.2122  142.1451  170.0044 C.3     1  UNL1        0.0724
     30 C         142.4374  142.9743  170.2520 C.3     1  UNL1        0.0188
     31 C         143.5379  142.4472  169.3795 C.3     1  UNL1        0.0188
     32 C         142.9929  141.2923  168.5928 C.3     1  UNL1        0.0724
@<TRIPOS>BOND
     1     1     2    2
     2     2     9    1
     3     9    10   ar
     4    10    11   ar
     5    11    14    1
     6    14    15   ar
     7    15    16   ar
     8    16    17   ar
     9    17    18   ar
    10    18    19   ar
    11    11    12   ar
    12    12    13   ar
    13     2     3   am
    14     3     4    1
    15     4     5    1
    16     5     6    1
    17     6    20    1
    18    20    21    1
    19    21    22   ar
    20    22    23   ar
    21    23    24   ar
    22    24    27    1
    23    27    28    1
    24    28    29    1
    25    29    30    1
    26    30    31    1
    27    31    32    1
    28    24    25   ar
    29    25    26   ar
    30     6     7    1
    31     7     8    1
    32    13     9   ar
    33     8     3    1
    34    19    14   ar
    35    26    21   ar
    36    32    28    1
@<TRIPOS>MOLECULE
*****
 32 36 0 0 0
SMALL
GASTEIGER

@<TRIPOS>ATOM
      1 O         143.9947  139.6896  158.8340 O.2     1  UNL1       -0.2647
      2 C         142.7207  138.9018  158.9147 C.2     1  UNL1        0.3054
      3 N         141.6793  139.2622  159.9322 N.am    1  UNL1       -0.2719
      4 C         140.4054  138.4744  160.0129 C.3     1  UNL1        0.0976
      5 C         139.3639  138.8348  161.0305 C.3     1  UNL1        0.0651
      6 C         139.5964  139.9830  161.9674 C.3     1  UNL1        0.1693
      7 C         140.8704  140.7707  161.8867 C.3     1  UNL1        0.0651
      8 C         141.9118  140.4103  160.8691 C.3     1  UNL1        0.0976
      9 C         142.4882  137.7537  157.9778 C.ar    1  UNL1        0.3139
     10 N         143.2844  136.4835  157.9251 N.ar    1  UNL1       -0.1831
     11 C         142.7070  135.6190  156.8439 C.ar    1  UNL1        0.2037
     12 N         141.5539  136.3548  156.2282 N.ar    1  UNL1       -0.0554
     13 O         141.4187  137.6742  156.9290 O.2     1  UNL1       -0.3276
     14 C         143.1966  134.2575  156.4477 C.ar    1  UNL1        0.0391
     15 C         142.7621  133.6539  155.1452 C.ar    1  UNL1        0.0032
     16 C         143.2517  132.2925  154.7491 C.ar    1  UNL1        0.0001
     17 C         144.1759  131.5348  155.6556 C.ar    1  UNL1        0.0000
     18 C         144.6105  132.1385  156.9582 C.ar    1  UNL1        0.0001
     19 C         144.1208  133.4998  157.3542 C.ar    1  UNL1        0.0032
     20 O         138.5549  140.3433  162.9850 O.3     1  UNL1       -0.4791
     21 C         138.9109  140.3807  164.4417 C.ar    1  UNL1        0.1384
     22 C         138.4525  139.2820  165.3542 C.ar    1  UNL1        0.0366
     23 C         138.8085  139.3195  166.8108 C.ar    1  UNL1        0.0002
     24 C         139.6228  140.4555  167.3549 C.ar    1  UNL1       -0.0059
     25 C         140.0812  141.5542  166.4424 C.ar    1  UNL1        0.0002
     26 C         139.7252  141.5168  164.9858 C.ar    1  UNL1        0.0366
     27 C         139.9788  140.4930  168.8117 C.3     1  UNL1        0.0991
     28 N         141.1771  141.2695  169.2712 N.3     1  UNL1       -0.2690
     29 C         141.1555  142.6206  169.9223 C.3     1  UNL1        0.0724
     30 C         142.5724  143.0174  170.2138 C.3     1  UNL1        0.0188
     31 C         143.4697  141.9115  169.7427 C.3     1  UNL1        0.0188
     32 C         142.6074  140.8313  169.1601 C.3     1  UNL1        0.0724
@<TRIPOS>BOND
     1     1     2    2
     2     2     9    1
     3     9    10   ar
     4    10    11   ar
     5    11    14    1
     6    14    15   ar
     7    15    16   ar
     8    16    17   ar
     9    17    18   ar
    10    18    19   ar
    11    11    12   ar
    12    12    13   ar
    13     2     3   am
    14     3     4    1
    15     4     5    1
    16     5     6    1
    17     6    20    1
    18    20    21    1
    19    21    22   ar
    20    22    23   ar
    21    23    24   ar
    22    24    27    1
    23    27    28    1
    24    28    29    1
    25    29    30    1
    26    30    31    1
    27    31    32    1
    28    24    25   ar
    29    25    26   ar
    30     6     7    1
    31     7     8    1
    32    13     9   ar
    33     8     3    1
    34    19    14   ar
    35    26    21   ar
    36    32    28    1
@<TRIPOS>MOLECULE
*****
 32 36 0 0 0
SMALL
GASTEIGER

@<TRIPOS>ATOM
      1 O         142.8729  140.1663  156.5933 O.2     1  UNL1       -0.2647
      2 C         142.7644  138.9626  157.4818 C.2     1  UNL1        0.3054
      3 N         143.1615  139.0576  158.9251 N.am    1  UNL1       -0.2719
      4 C         143.0530  137.8540  159.8136 C.3     1  UNL1        0.0976
      5 C         143.4501  137.9490  161.2569 C.3     1  UNL1        0.0651
      6 C         143.9557  139.2477  161.8118 C.3     1  UNL1        0.1693
      7 C         144.0642  140.4514  160.9233 C.3     1  UNL1        0.0651
      8 C         143.6671  140.3563  159.4800 C.3     1  UNL1        0.0976
      9 C         142.2588  137.6639  156.9269 C.ar    1  UNL1        0.3139
     10 N         143.0365  136.3851  156.8280 N.ar    1  UNL1       -0.1831
     11 C         142.1452  135.3469  156.2135 C.ar    1  UNL1        0.2037
     12 N         140.8166  135.9841  155.9327 N.ar    1  UNL1       -0.0554
     13 O         140.8868  137.4161  156.3736 O.2     1  UNL1       -0.3276
     14 C         142.5171  133.9217  155.9297 C.ar    1  UNL1        0.0391
     15 C         143.9309  133.4617  156.1281 C.ar    1  UNL1        0.0032
     16 C         144.3028  132.0366  155.8443 C.ar    1  UNL1        0.0001
     17 C         143.2608  131.0714  155.3620 C.ar    1  UNL1        0.0000
     18 C         141.8469  131.5313  155.1635 C.ar    1  UNL1        0.0001
     19 C         141.4751  132.9565  155.4474 C.ar    1  UNL1        0.0032
     20 O         144.3528  139.3427  163.2552 O.3     1  UNL1       -0.4791
     21 C         143.3007  139.4864  164.3147 C.ar    1  UNL1        0.1384
     22 C         143.5355  138.9254  165.6859 C.ar    1  UNL1        0.0366
     23 C         142.4834  139.0692  166.7452 C.ar    1  UNL1        0.0002
     24 C         141.1965  139.7739  166.4334 C.ar    1  UNL1       -0.0059
     25 C         140.9617  140.3348  165.0623 C.ar    1  UNL1        0.0002
     26 C         142.0138  140.1911  164.0029 C.ar    1  UNL1        0.0366
     27 C         140.1443  139.9176  167.4929 C.3     1  UNL1        0.0991
     28 N         140.1429  141.1196  168.3903 N.3     1  UNL1       -0.2690
     29 C         139.6671  141.1576  169.8123 C.3     1  UNL1        0.0724
     30 C         139.8472  142.5560  170.3241 C.3     1  UNL1        0.0188
     31 C         140.4343  143.3823  169.2184 C.3     1  UNL1        0.0188
     32 C         140.6171  142.4945  168.0232 C.3     1  UNL1        0.0724
@<TRIPOS>BOND
     1     1     2    2
     2     2     9    1
     3     9    10   ar
     4    10    11   ar
     5    11    14    1
     6    14    15   ar
     7    15    16   ar
     8    16    17   ar
     9    17    18   ar
    10    18    19   ar
    11    11    12   ar
    12    12    13   ar
    13     2     3   am
    14     3     4    1
    15     4     5    1
    16     5     6    1
    17     6    20    1
    18    20    21    1
    19    21    22   ar
    20    22    23   ar
    21    23    24   ar
    22    24    27    1
    23    27    28    1
    24    28    29    1
    25    29    30    1
    26    30    31    1
    27    31    32    1
    28    24    25   ar
    29    25    26   ar
    30     6     7    1
    31     7     8    1
    32    13     9   ar
    33     8     3    1
    34    19    14   ar
    35    26    21   ar
    36    32    28    1
@<TRIPOS>MOLECULE
*****
 32 36 0 0 0
SMALL
GASTEIGER

@<TRIPOS>ATOM
      1 O         137.3635  139.5041  160.7644 O.2     1  UNL1       -0.2647
      2 C         138.6896  139.0859  161.3269 C.2     1  UNL1        0.3054
      3 N         139.8159  138.7261  160.4040 N.am    1  UNL1       -0.2719
      4 C         141.1420  138.3078  160.9665 C.3     1  UNL1        0.0976
      5 C         142.2684  137.9481  160.0436 C.3     1  UNL1        0.0651
      6 C         142.0687  138.0067  158.5581 C.3     1  UNL1        0.1693
      7 C         140.7426  138.4250  157.9955 C.3     1  UNL1        0.0651
      8 C         139.6162  138.7847  158.9185 C.3     1  UNL1        0.0976
      9 C         138.8893  139.0273  162.8124 C.ar    1  UNL1        0.3139
     10 N         139.2455  140.1825  163.7004 N.ar    1  UNL1       -0.1831
     11 C         139.3443  139.6724  165.1075 C.ar    1  UNL1        0.2037
     12 N         139.0490  138.2018  165.0892 N.ar    1  UNL1       -0.0554
     13 O         138.7679  137.8031  163.6708 O.2     1  UNL1       -0.3276
     14 C         139.6794  140.4894  166.3201 C.ar    1  UNL1        0.0391
     15 C         139.5657  139.8835  167.6875 C.ar    1  UNL1        0.0032
     16 C         139.9008  140.7005  168.9000 C.ar    1  UNL1        0.0001
     17 C         140.3496  142.1233  168.7451 C.ar    1  UNL1        0.0000
     18 C         140.4632  142.7293  167.3777 C.ar    1  UNL1        0.0001
     19 C         140.1281  141.9123  166.1652 C.ar    1  UNL1        0.0032
     20 O         143.1951  137.6470  157.6351 O.3     1  UNL1       -0.4791
     21 C         143.1406  136.3721  156.8465 C.ar    1  UNL1        0.1384
     22 C         143.3518  135.0556  157.5336 C.ar    1  UNL1        0.0366
     23 C         143.2973  133.7809  156.7450 C.ar    1  UNL1        0.0002
     24 C         143.0316  133.8226  155.2693 C.ar    1  UNL1       -0.0059
     25 C         142.8205  135.1391  154.5823 C.ar    1  UNL1        0.0002
     26 C         142.8750  136.4139  155.3708 C.ar    1  UNL1        0.0366
     27 C         142.9771  132.5478  154.4807 C.3     1  UNL1        0.0991
     28 N         143.2589  131.2370  155.1534 N.3     1  UNL1       -0.2690
     29 C         142.2350  130.2989  155.7204 C.3     1  UNL1        0.0724
     30 C         142.9573  129.1164  156.2947 C.3     1  UNL1        0.0188
     31 C         144.4277  129.3237  156.0827 C.3     1  UNL1        0.0188
     32 C         144.6142  130.6343  155.3773 C.3     1  UNL1        0.0724
@<TRIPOS>BOND
     1     1     2    2
     2     2     9    1
     3     9    10   ar
     4    10    11   ar
     5    11    14    1
     6    14    15   ar
     7    15    16   ar
     8    16    17   ar
     9    17    18   ar
    10    18    19   ar
    11    11    12   ar
    12    12    13   ar
    13     2     3   am
    14     3     4    1
    15     4     5    1
    16     5     6    1
    17     6    20    1
    18    20    21    1
    19    21    22   ar
    20    22    23   ar
    21    23    24   ar
    22    24    27    1
    23    27    28    1
    24    28    29    1
    25    29    30    1
    26    30    31    1
    27    31    32    1
    28    24    25   ar
    29    25    26   ar
    30     6     7    1
    31     7     8    1
    32    13     9   ar
    33     8     3    1
    34    19    14   ar
    35    26    21   ar
    36    32    28    1
@<TRIPOS>MOLECULE
*****
 32 36 0 0 0
SMALL
GASTEIGER

@<TRIPOS>ATOM
      1 O         141.9859  141.9164  156.4591 O.2     1  UNL1       -0.2647
      2 C         143.0507  141.3886  157.3744 C.2     1  UNL1        0.3054
      3 N         142.7011  140.3811  158.4293 N.am    1  UNL1       -0.2719
      4 C         143.7659  139.8533  159.3445 C.3     1  UNL1        0.0976
      5 C         143.4163  138.8459  160.3994 C.3     1  UNL1        0.0651
      6 C         142.0019  138.3663  160.5391 C.3     1  UNL1        0.1693
      7 C         140.9371  138.8941  159.6239 C.3     1  UNL1        0.0651
      8 C         141.2867  139.9015  158.5690 C.3     1  UNL1        0.0976
      9 C         144.4651  141.8682  157.2347 C.ar    1  UNL1        0.3139
     10 N         145.3125  141.7674  156.0011 N.ar    1  UNL1       -0.1831
     11 C         146.6515  142.3697  156.3080 C.ar    1  UNL1        0.2037
     12 N         146.6317  142.8427  157.7314 N.ar    1  UNL1       -0.0554
     13 O         145.2805  142.5327  158.3041 O.2     1  UNL1       -0.3276
     14 C         147.8075  142.4797  155.3584 C.ar    1  UNL1        0.0391
     15 C         149.0711  141.7162  155.6234 C.ar    1  UNL1        0.0032
     16 C         150.2269  141.8262  154.6737 C.ar    1  UNL1        0.0001
     17 C         150.1192  142.6998  153.4591 C.ar    1  UNL1        0.0000
     18 C         148.8556  143.4634  153.1942 C.ar    1  UNL1        0.0001
     19 C         147.6997  143.3533  154.1438 C.ar    1  UNL1        0.0032
     20 O         141.6523  137.3588  161.5941 O.3     1  UNL1       -0.4791
     21 C         140.9670  137.7989  162.8537 C.ar    1  UNL1        0.1384
     22 C         141.7797  138.2267  164.0396 C.ar    1  UNL1        0.0366
     23 C         141.0944  138.6667  165.2991 C.ar    1  UNL1        0.0002
     24 C         139.5962  138.6791  165.3728 C.ar    1  UNL1       -0.0059
     25 C         138.7835  138.2514  164.1869 C.ar    1  UNL1        0.0002
     26 C         139.4688  137.8113  162.9273 C.ar    1  UNL1        0.0366
     27 C         138.9108  139.1192  166.6324 C.3     1  UNL1        0.0991
     28 N         139.4983  140.2244  167.4591 N.3     1  UNL1       -0.2690
     29 C         139.6442  140.2268  168.9520 C.3     1  UNL1        0.0724
     30 C         140.2792  141.5251  169.3536 C.3     1  UNL1        0.0188
     31 C         140.5257  142.3251  168.1089 C.3     1  UNL1        0.0188
     32 C         140.0432  141.5212  166.9380 C.3     1  UNL1        0.0724
@<TRIPOS>BOND
     1     1     2    2
     2     2     9    1
     3     9    10   ar
     4    10    11   ar
     5    11    14    1
     6    14    15   ar
     7    15    16   ar
     8    16    17   ar
     9    17    18   ar
    10    18    19   ar
    11    11    12   ar
    12    12    13   ar
    13     2     3   am
    14     3     4    1
    15     4     5    1
    16     5     6    1
    17     6    20    1
    18    20    21    1
    19    21    22   ar
    20    22    23   ar
    21    23    24   ar
    22    24    27    1
    23    27    28    1
    24    28    29    1
    25    29    30    1
    26    30    31    1
    27    31    32    1
    28    24    25   ar
    29    25    26   ar
    30     6     7    1
    31     7     8    1
    32    13     9   ar
    33     8     3    1
    34    19    14   ar
    35    26    21   ar
    36    32    28    1
@<TRIPOS>MOLECULE
*****
 32 36 0 0 0
SMALL
GASTEIGER

@<TRIPOS>ATOM
      1 O         140.8651  136.8991  163.2572 O.2     1  UNL1       -0.2647
      2 C         139.9134  138.0518  163.3814 C.2     1  UNL1        0.3054
      3 N         139.3849  138.7241  162.1490 N.am    1  UNL1       -0.2719
      4 C         138.4332  139.8768  162.2732 C.3     1  UNL1        0.0976
      5 C         137.9046  140.5491  161.0409 C.3     1  UNL1        0.0651
      6 C         138.3278  140.0687  159.6844 C.3     1  UNL1        0.1693
      7 C         139.2796  138.9159  159.5602 C.3     1  UNL1        0.0651
      8 C         139.8081  138.2436  160.7925 C.3     1  UNL1        0.0976
      9 C         139.4902  138.5322  164.7379 C.ar    1  UNL1        0.3139
     10 N         140.1650  139.6017  165.5446 N.ar    1  UNL1       -0.1831
     11 C         139.4098  139.7580  166.8311 C.ar    1  UNL1        0.2037
     12 N         138.2681  138.7851  166.8195 N.ar    1  UNL1       -0.0554
     13 O         138.3178  138.0275  165.5258 O.2     1  UNL1       -0.3276
     14 C         139.7385  140.7185  167.9354 C.ar    1  UNL1        0.0391
     15 C         140.3137  142.0654  167.6114 C.ar    1  UNL1        0.0032
     16 C         140.6423  143.0258  168.7157 C.ar    1  UNL1        0.0001
     17 C         140.3957  142.6394  170.1440 C.ar    1  UNL1        0.0000
     18 C         139.8205  141.2925  170.4679 C.ar    1  UNL1        0.0001
     19 C         139.4919  140.3321  169.3636 C.ar    1  UNL1        0.0032
     20 O         137.7993  140.7410  158.4520 O.3     1  UNL1       -0.4791
     21 C         138.5873  141.8381  157.7996 C.ar    1  UNL1        0.1384
     22 C         139.1198  142.9718  158.6249 C.ar    1  UNL1        0.0366
     23 C         139.9077  144.0688  157.9725 C.ar    1  UNL1        0.0002
     24 C         140.1632  144.0321  156.4949 C.ar    1  UNL1       -0.0059
     25 C         139.6307  142.8985  155.6697 C.ar    1  UNL1        0.0002
     26 C         138.8427  141.8014  156.3220 C.ar    1  UNL1        0.0366
     27 C         140.9512  145.1292  155.8425 C.3     1  UNL1        0.0991
     28 N         140.2769  146.4152  155.4662 N.3     1  UNL1       -0.2690
     29 C         140.5332  147.2142  154.2229 C.3     1  UNL1        0.0724
     30 C         139.6427  148.4208  154.2555 C.3     1  UNL1        0.0188
     31 C         138.8360  148.3675  155.5190 C.3     1  UNL1        0.0188
     32 C         139.2280  147.1281  156.2673 C.3     1  UNL1        0.0724
@<TRIPOS>BOND
     1     1     2    2
     2     2     9    1
     3     9    10   ar
     4    10    11   ar
     5    11    14    1
     6    14    15   ar
     7    15    16   ar
     8    16    17   ar
     9    17    18   ar
    10    18    19   ar
    11    11    12   ar
    12    12    13   ar
    13     2     3   am
    14     3     4    1
    15     4     5    1
    16     5     6    1
    17     6    20    1
    18    20    21    1
    19    21    22   ar
    20    22    23   ar
    21    23    24   ar
    22    24    27    1
    23    27    28    1
    24    28    29    1
    25    29    30    1
    26    30    31    1
    27    31    32    1
    28    24    25   ar
    29    25    26   ar
    30     6     7    1
    31     7     8    1
    32    13     9   ar
    33     8     3    1
    34    19    14   ar
    35    26    21   ar
    36    32    28    1
@<TRIPOS>MOLECULE
*****
 32 36 0 0 0
SMALL
GASTEIGER

@<TRIPOS>ATOM
      1 O         143.3649  143.5000  159.0369 O.2     1  UNL1       -0.2647
      2 C         143.8950  142.0974  158.9957 C.2     1  UNL1        0.3054
      3 N         143.5333  141.1268  160.0805 N.am    1  UNL1       -0.2719
      4 C         144.0634  139.7242  160.0393 C.3     1  UNL1        0.0976
      5 C         143.7016  138.7535  161.1241 C.3     1  UNL1        0.0651
      6 C         142.8098  139.1854  162.2502 C.3     1  UNL1        0.1693
      7 C         142.2797  140.5880  162.2914 C.3     1  UNL1        0.0651
      8 C         142.6414  141.5587  161.2066 C.3     1  UNL1        0.0976
      9 C         144.7869  141.6655  157.8696 C.ar    1  UNL1        0.3139
     10 N         145.8692  142.4888  157.2365 N.ar    1  UNL1       -0.1831
     11 C         146.5042  141.6666  156.1545 C.ar    1  UNL1        0.2037
     12 N         145.8144  140.3351  156.1189 N.ar    1  UNL1       -0.0554
     13 O         144.7530  140.3344  157.1788 O.2     1  UNL1       -0.3276
     14 C         147.6313  142.0998  155.2644 C.ar    1  UNL1        0.0391
     15 C         147.3933  143.1301  154.2006 C.ar    1  UNL1        0.0032
     16 C         148.5203  143.5632  153.3106 C.ar    1  UNL1        0.0001
     17 C         149.8853  142.9660  153.4844 C.ar    1  UNL1        0.0000
     18 C         150.1232  141.9357  154.5482 C.ar    1  UNL1        0.0001
     19 C         148.9962  141.5025  155.4382 C.ar    1  UNL1        0.0032
     20 O         142.4480  138.2147  163.3351 O.3     1  UNL1       -0.4791
     21 C         141.7445  138.6969  164.5690 C.ar    1  UNL1        0.1384
     22 C         142.5400  139.1749  165.7475 C.ar    1  UNL1        0.0366
     23 C         141.8365  139.6571  166.9813 C.ar    1  UNL1        0.0002
     24 C         140.3375  139.6613  167.0368 C.ar    1  UNL1       -0.0059
     25 C         139.5421  139.1833  165.8584 C.ar    1  UNL1        0.0002
     26 C         140.2456  138.7011  164.6245 C.ar    1  UNL1        0.0366
     27 C         139.6340  140.1435  168.2707 C.3     1  UNL1        0.0991
     28 N         140.2941  141.1505  169.1653 N.3     1  UNL1       -0.2690
     29 C         140.5091  142.6015  168.8516 C.3     1  UNL1        0.0724
     30 C         141.2030  143.2311  170.0230 C.3     1  UNL1        0.0188
     31 C         141.4168  142.1692  171.0607 C.3     1  UNL1        0.0188
     32 C         140.8551  140.8833  170.5306 C.3     1  UNL1        0.0724
@<TRIPOS>BOND
     1     1     2    2
     2     2     9    1
     3     9    10   ar
     4    10    11   ar
     5    11    14    1
     6    14    15   ar
     7    15    16   ar
     8    16    17   ar
     9    17    18   ar
    10    18    19   ar
    11    11    12   ar
    12    12    13   ar
    13     2     3   am
    14     3     4    1
    15     4     5    1
    16     5     6    1
    17     6    20    1
    18    20    21    1
    19    21    22   ar
    20    22    23   ar
    21    23    24   ar
    22    24    27    1
    23    27    28    1
    24    28    29    1
    25    29    30    1
    26    30    31    1
    27    31    32    1
    28    24    25   ar
    29    25    26   ar
    30     6     7    1
    31     7     8    1
    32    13     9   ar
    33     8     3    1
    34    19    14   ar
    35    26    21   ar
    36    32    28    1
@<TRIPOS>MOLECULE
*****
 32 36 0 0 0
SMALL
GASTEIGER

@<TRIPOS>ATOM
      1 O         145.2200  141.7044  162.0151 O.2     1  UNL1       -0.2647
      2 C         144.1875  140.6330  162.2059 C.2     1  UNL1        0.3054
      3 N         143.4201  140.1126  161.0268 N.am    1  UNL1       -0.2719
      4 C         142.3877  139.0413  161.2176 C.3     1  UNL1        0.0976
      5 C         141.6202  138.5209  160.0386 C.3     1  UNL1        0.0651
      6 C         141.8852  139.0718  158.6688 C.3     1  UNL1        0.1693
      7 C         142.9176  140.1431  158.4780 C.3     1  UNL1        0.0651
      8 C         143.6850  140.6635  159.6570 C.3     1  UNL1        0.0976
      9 C         143.9226  140.0822  163.5757 C.ar    1  UNL1        0.3139
     10 N         142.8404  140.5310  164.5124 N.ar    1  UNL1       -0.1831
     11 C         142.9423  139.7120  165.7649 C.ar    1  UNL1        0.2037
     12 N         144.0875  138.7569  165.6023 N.ar    1  UNL1       -0.0554
     13 O         144.6934  138.9857  164.2493 O.2     1  UNL1       -0.3276
     14 C         142.0548  139.8276  166.9687 C.ar    1  UNL1        0.0391
     15 C         142.6031  139.5405  168.3350 C.ar    1  UNL1        0.0032
     16 C         141.7156  139.6562  169.5387 C.ar    1  UNL1        0.0001
     17 C         140.2799  140.0590  169.3761 C.ar    1  UNL1        0.0000
     18 C         139.7316  140.3461  168.0097 C.ar    1  UNL1        0.0001
     19 C         140.6191  140.2304  166.8060 C.ar    1  UNL1        0.0032
     20 O         141.1177  138.5513  157.4897 O.3     1  UNL1       -0.4791
     21 C         141.5622  137.2954  156.8006 C.ar    1  UNL1        0.1384
     22 C         140.6455  136.6052  155.8344 C.ar    1  UNL1        0.0366
     23 C         141.0901  135.3493  155.1453 C.ar    1  UNL1        0.0002
     24 C         142.4514  134.7835  155.4223 C.ar    1  UNL1       -0.0059
     25 C         143.3680  135.4736  156.3884 C.ar    1  UNL1        0.0002
     26 C         142.9235  136.7295  157.0776 C.ar    1  UNL1        0.0366
     27 C         142.8960  133.5275  154.7332 C.3     1  UNL1        0.0991
     28 N         143.2805  132.3241  155.5419 N.3     1  UNL1       -0.2690
     29 C         142.3807  131.1791  155.9013 C.3     1  UNL1        0.0724
     30 C         143.1764  130.2018  156.7148 C.3     1  UNL1        0.0188
     31 C         144.5680  130.7429  156.8582 C.3     1  UNL1        0.0188
     32 C         144.6324  132.0545  156.1334 C.3     1  UNL1        0.0724
@<TRIPOS>BOND
     1     1     2    2
     2     2     9    1
     3     9    10   ar
     4    10    11   ar
     5    11    14    1
     6    14    15   ar
     7    15    16   ar
     8    16    17   ar
     9    17    18   ar
    10    18    19   ar
    11    11    12   ar
    12    12    13   ar
    13     2     3   am
    14     3     4    1
    15     4     5    1
    16     5     6    1
    17     6    20    1
    18    20    21    1
    19    21    22   ar
    20    22    23   ar
    21    23    24   ar
    22    24    27    1
    23    27    28    1
    24    28    29    1
    25    29    30    1
    26    30    31    1
    27    31    32    1
    28    24    25   ar
    29    25    26   ar
    30     6     7    1
    31     7     8    1
    32    13     9   ar
    33     8     3    1
    34    19    14   ar
    35    26    21   ar
    36    32    28    1
@<TRIPOS>MOLECULE
*****
 32 36 0 0 0
SMALL
GASTEIGER

@<TRIPOS>ATOM
      1 O         139.3167  140.1156  156.7466 O.2     1  UNL1       -0.2647
      2 C         139.9434  139.2472  157.7969 C.2     1  UNL1        0.3054
      3 N         139.4229  139.2773  159.2034 N.am    1  UNL1       -0.2719
      4 C         140.0497  138.4090  160.2537 C.3     1  UNL1        0.0976
      5 C         139.5292  138.4391  161.6602 C.3     1  UNL1        0.0651
      6 C         138.3820  139.3376  162.0163 C.3     1  UNL1        0.1693
      7 C         137.7553  140.2059  160.9660 C.3     1  UNL1        0.0651
      8 C         138.2758  140.1758  159.5595 C.3     1  UNL1        0.0976
      9 C         141.0906  138.3488  157.4408 C.ar    1  UNL1        0.3139
     10 N         140.9837  136.9776  156.8421 N.ar    1  UNL1       -0.1831
     11 C         142.3730  136.4451  156.6521 C.ar    1  UNL1        0.2037
     12 N         143.3387  137.4873  157.1334 N.ar    1  UNL1       -0.0554
     13 O         142.5461  138.6638  157.6208 O.2     1  UNL1       -0.3276
     14 C         142.7336  135.1057  156.0811 C.ar    1  UNL1        0.0391
     15 C         143.6856  134.2090  156.8155 C.ar    1  UNL1        0.0032
     16 C         144.0461  132.8696  156.2445 C.ar    1  UNL1        0.0001
     17 C         143.4546  132.4270  154.9390 C.ar    1  UNL1        0.0000
     18 C         142.5025  133.3237  154.2046 C.ar    1  UNL1        0.0001
     19 C         142.1420  134.6631  154.7757 C.ar    1  UNL1        0.0032
     20 O         137.8616  139.3677  163.4229 O.3     1  UNL1       -0.4791
     21 C         138.5912  140.1476  164.4761 C.ar    1  UNL1        0.1384
     22 C         139.1016  141.5247  164.1708 C.ar    1  UNL1        0.0366
     23 C         139.8312  142.3046  165.2240 C.ar    1  UNL1        0.0002
     24 C         140.0506  141.7075  166.5824 C.ar    1  UNL1       -0.0059
     25 C         139.5403  140.3305  166.8876 C.ar    1  UNL1        0.0002
     26 C         138.8106  139.5505  165.8345 C.ar    1  UNL1        0.0366
     27 C         140.7803  142.4875  167.6357 C.3     1  UNL1        0.0991
     28 N         141.3901  141.7769  168.8075 N.3     1  UNL1       -0.2690
     29 C         142.6541  140.9694  168.7886 C.3     1  UNL1        0.0724
     30 C         142.8882  140.4425  170.1734 C.3     1  UNL1        0.0188
     31 C         141.7690  140.9244  171.0481 C.3     1  UNL1        0.0188
     32 C         140.8431  141.7491  170.2040 C.3     1  UNL1        0.0724
@<TRIPOS>BOND
     1     1     2    2
     2     2     9    1
     3     9    10   ar
     4    10    11   ar
     5    11    14    1
     6    14    15   ar
     7    15    16   ar
     8    16    17   ar
     9    17    18   ar
    10    18    19   ar
    11    11    12   ar
    12    12    13   ar
    13     2     3   am
    14     3     4    1
    15     4     5    1
    16     5     6    1
    17     6    20    1
    18    20    21    1
    19    21    22   ar
    20    22    23   ar
    21    23    24   ar
    22    24    27    1
    23    27    28    1
    24    28    29    1
    25    29    30    1
    26    30    31    1
    27    31    32    1
    28    24    25   ar
    29    25    26   ar
    30     6     7    1
    31     7     8    1
    32    13     9   ar
    33     8     3    1
    34    19    14   ar
    35    26    21   ar
    36    32    28    1
