@<TRIPOS>MOLECULE
*****
 42 47 0 0 0
SMALL
GASTEIGER

@<TRIPOS>ATOM
      1 N         139.1447  142.2320  158.9794 N.am    1  UNL1       -0.2222
      2 C         139.2767  141.7182  160.3825 C.2     1  UNL1        0.3219
      3 O         138.8500  140.3654  160.8700 O.2     1  UNL1       -0.2512
      4 N         139.9104  142.7950  161.2127 N.am    1  UNL1       -0.1907
      5 C         140.1700  143.9742  160.3226 C.2     1  UNL1        0.2529
      6 O         140.7934  145.2732  160.7394 O.2     1  UNL1       -0.2724
      7 C         139.6968  143.6262  158.9423 C.3     1  UNL1        0.1391
      8 C         139.1816  143.1387  157.6206 C.3     1  UNL1        0.0449
      9 C         139.2487  144.0286  156.4151 C.3     1  UNL1        0.0746
     10 N         139.8311  145.4061  156.5312 N.3     1  UNL1       -0.2676
     11 C         140.3463  145.8936  157.8528 C.3     1  UNL1        0.0746
     12 C         140.2792  145.0036  159.0584 C.3     1  UNL1        0.0449
     13 C         136.5198  140.8576  156.3392 C.ar    1  UNL1        0.2293
     14 C         137.1017  141.6066  157.5012 C.ar    1  UNL1        0.0924
     15 C         138.5628  141.4829  157.8173 C.ar    1  UNL1        0.1453
     16 N         139.4419  140.6102  156.9715 N.ar    1  UNL1       -0.2084
     17 C         138.8601  139.8611  155.8095 C.ar    1  UNL1        0.2027
     18 N         137.3990  139.9848  155.4933 N.ar    1  UNL1       -0.1892
     19 C         134.2678  139.7643  155.6443 C.3     1  UNL1        0.2542
     20 O         135.0588  140.9813  156.0229 O.3     1  UNL1       -0.4560
     21 C         140.2286  142.7080  162.6759 C.ar    1  UNL1        0.0622
     22 C         141.2280  141.7034  163.1676 C.ar    1  UNL1        0.0154
     23 C         141.5462  141.6163  164.6309 C.ar    1  UNL1        0.0014
     24 C         140.8649  142.5338  165.6025 C.ar    1  UNL1        0.0032
     25 C         139.8654  143.5385  165.1107 C.ar    1  UNL1        0.0014
     26 C         139.5473  143.6255  163.6474 C.ar    1  UNL1        0.0154
     27 C         141.1831  142.4467  167.0657 C.ar    1  UNL1        0.0407
     28 C         142.5498  142.2857  167.6628 C.ar    1  UNL1        0.1796
     29 O         142.4018  142.2448  169.1549 O.2     1  UNL1       -0.4493
     30 C         140.9438  142.3806  169.4800 C.ar    1  UNL1        0.1594
     31 C         140.1906  142.5054  168.1889 C.ar    1  UNL1        0.0418
     32 C         140.3442  142.3900  170.8549 C.2     1  UNL1        0.1076
     33 O         139.2698  143.3790  171.1979 O.co2   1  UNL1       -0.5415
     34 O         140.8189  141.4105  171.8869 O.co2   1  UNL1       -0.5415
     35 C         139.8981  146.2961  155.3255 C.3     1  UNL1        0.1183
     36 C         139.4714  147.7304  155.4274 C.ar    1  UNL1        0.0712
     37 N         138.6959  148.1991  156.6228 N.ar    1  UNL1       -0.2471
     38 C         138.2691  149.6335  156.7247 C.ar    1  UNL1        0.0985
     39 C         138.6178  150.5992  155.6312 C.ar    1  UNL1        0.0203
     40 C         139.3933  150.1305  154.4358 C.ar    1  UNL1       -0.0015
     41 C         139.8200  148.6962  154.3339 C.ar    1  UNL1       -0.0069
     42 C         140.5955  148.2275  153.1384 C.3     1  UNL1        0.0323
@<TRIPOS>UNITY_ATOM_ATTR
33 1
charge -1
@<TRIPOS>BOND
     1    19    20    1
     2    20    13    1
     3    13    14   ar
     4    14    15   ar
     5    15     1    1
     6     1     2   am
     7     2     3    2
     8     2     4   am
     9     4    21    1
    10    21    22   ar
    11    22    23   ar
    12    23    24   ar
    13    24    27    1
    14    27    28   ar
    15    28    29   ar
    16    29    30   ar
    17    30    32    1
    18    32    33   ar
    19    32    34   ar
    20    30    31   ar
    21    24    25   ar
    22    25    26   ar
    23     4     5   am
    24     5     6    2
    25     5     7    1
    26     7     8    1
    27     8     9    1
    28     9    10    1
    29    10    35    1
    30    35    36    1
    31    36    37   ar
    32    37    38   ar
    33    38    39   ar
    34    39    40   ar
    35    40    41   ar
    36    41    42    1
    37    10    11    1
    38    11    12    1
    39    15    16   ar
    40    16    17   ar
    41    17    18   ar
    42    18    13   ar
    43     7     1    1
    44    41    36   ar
    45    26    21   ar
    46    12     7    1
    47    31    27   ar
@<TRIPOS>MOLECULE
*****
 42 47 0 0 0
SMALL
GASTEIGER

@<TRIPOS>ATOM
      1 N         142.0796  138.1989  158.7661 N.am    1  UNL1       -0.2222
      2 C         142.5078  138.1705  160.2035 C.2     1  UNL1        0.3219
      3 O         143.7892  137.5960  160.7306 O.2     1  UNL1       -0.2512
      4 N         141.4294  138.8176  161.0212 N.am    1  UNL1       -0.1907
      5 C         140.3348  139.2458  160.0892 C.2     1  UNL1        0.2529
      6 O         139.0619  139.9353  160.4818 O.2     1  UNL1       -0.2724
      7 C         140.7367  138.8635  158.6954 C.3     1  UNL1        0.1391
      8 C         141.2704  138.4232  157.3645 C.3     1  UNL1        0.0449
      9 C         140.4699  138.6632  156.1189 C.3     1  UNL1        0.0746
     10 N         139.1358  139.3436  156.2042 N.3     1  UNL1       -0.2676
     11 C         138.6021  139.7839  157.5351 C.3     1  UNL1        0.0746
     12 C         139.4026  139.5438  158.7807 C.3     1  UNL1        0.0449
     13 C         143.6005  135.6491  156.1326 C.ar    1  UNL1        0.2293
     14 C         142.8223  136.1903  157.2952 C.ar    1  UNL1        0.0924
     15 C         142.8579  137.6578  157.6035 C.ar    1  UNL1        0.1453
     16 N         143.6716  138.5841  156.7493 N.ar    1  UNL1       -0.2084
     17 C         144.4498  138.0431  155.5868 C.ar    1  UNL1        0.2027
     18 N         144.4143  136.5755  155.2784 N.ar    1  UNL1       -0.1892
     19 C         142.9125  133.2295  156.7822 C.3     1  UNL1        0.2542
     20 O         143.5650  134.1816  155.8242 O.3     1  UNL1       -0.4560
     21 C         141.4431  139.0036  162.5094 C.ar    1  UNL1        0.0622
     22 C         141.4923  137.8084  163.4143 C.ar    1  UNL1        0.0154
     23 C         141.5061  137.9945  164.9027 C.ar    1  UNL1        0.0014
     24 C         141.4706  139.3759  165.4861 C.ar    1  UNL1        0.0032
     25 C         141.4214  140.5712  164.5813 C.ar    1  UNL1        0.0014
     26 C         141.4077  140.3850  163.0929 C.ar    1  UNL1        0.0154
     27 C         141.4844  139.5620  166.9745 C.ar    1  UNL1        0.0407
     28 C         142.6834  139.4385  167.8674 C.ar    1  UNL1        0.1796
     29 O         142.2416  139.7045  169.2760 O.2     1  UNL1       -0.4493
     30 C         140.7696  139.9922  169.2536 C.ar    1  UNL1        0.1594
     31 C         140.3016  139.9041  167.8312 C.ar    1  UNL1        0.0418
     32 C         139.9155  140.3119  170.4446 C.2     1  UNL1        0.1076
     33 O         138.4562  139.9653  170.4357 O.co2   1  UNL1       -0.5415
     34 O         140.5208  140.9782  171.6444 O.co2   1  UNL1       -0.5415
     35 C         138.3353  139.5836  154.9585 C.3     1  UNL1        0.1183
     36 C         136.9171  140.0618  155.0588 C.ar    1  UNL1        0.0712
     37 N         135.8065  139.0763  155.2714 N.ar    1  UNL1       -0.2471
     38 C         134.3883  139.5545  155.3717 C.ar    1  UNL1        0.0985
     39 C         134.0808  141.0183  155.2595 C.ar    1  UNL1        0.0203
     40 C         135.1914  142.0039  155.0469 C.ar    1  UNL1       -0.0015
     41 C         136.6095  141.5257  154.9466 C.ar    1  UNL1       -0.0069
     42 C         137.7201  142.5113  154.7341 C.3     1  UNL1        0.0323
@<TRIPOS>UNITY_ATOM_ATTR
33 1
charge -1
@<TRIPOS>BOND
     1    19    20    1
     2    20    13    1
     3    13    14   ar
     4    14    15   ar
     5    15     1    1
     6     1     2   am
     7     2     3    2
     8     2     4   am
     9     4    21    1
    10    21    22   ar
    11    22    23   ar
    12    23    24   ar
    13    24    27    1
    14    27    28   ar
    15    28    29   ar
    16    29    30   ar
    17    30    32    1
    18    32    33   ar
    19    32    34   ar
    20    30    31   ar
    21    24    25   ar
    22    25    26   ar
    23     4     5   am
    24     5     6    2
    25     5     7    1
    26     7     8    1
    27     8     9    1
    28     9    10    1
    29    10    35    1
    30    35    36    1
    31    36    37   ar
    32    37    38   ar
    33    38    39   ar
    34    39    40   ar
    35    40    41   ar
    36    41    42    1
    37    10    11    1
    38    11    12    1
    39    15    16   ar
    40    16    17   ar
    41    17    18   ar
    42    18    13   ar
    43     7     1    1
    44    41    36   ar
    45    26    21   ar
    46    12     7    1
    47    31    27   ar
@<TRIPOS>MOLECULE
*****
 42 47 0 0 0
SMALL
GASTEIGER

@<TRIPOS>ATOM
      1 N         141.6077  139.1523  159.4247 N.am    1  UNL1       -0.2222
      2 C         141.1096  138.9076  160.8184 C.2     1  UNL1        0.3219
      3 O         140.4370  137.6594  161.3078 O.2     1  UNL1       -0.2512
      4 N         141.4024  140.1302  161.6366 N.am    1  UNL1       -0.1907
      5 C         142.0814  141.1305  160.7487 C.2     1  UNL1        0.2529
      6 O         142.5510  142.4956  161.1562 O.2     1  UNL1       -0.2724
      7 C         142.2083  140.5262  159.3817 C.3     1  UNL1        0.1391
      8 C         142.2641  139.7946  158.0734 C.3     1  UNL1        0.0449
      9 C         142.8829  140.4492  156.8740 C.3     1  UNL1        0.0746
     10 N         143.4458  141.8353  156.9828 N.3     1  UNL1       -0.2676
     11 C         143.3899  142.5668  158.2911 C.3     1  UNL1        0.0746
     12 C         142.7712  141.9123  159.4905 C.3     1  UNL1        0.0449
     13 C         142.5569  136.2732  156.8636 C.ar    1  UNL1        0.2293
     14 C         142.6441  137.2337  158.0124 C.ar    1  UNL1        0.0924
     15 C         141.5205  138.1918  158.2759 C.ar    1  UNL1        0.1453
     16 N         140.3096  138.1894  157.3906 N.ar    1  UNL1       -0.2084
     17 C         140.2223  137.2289  156.2418 C.ar    1  UNL1        0.2027
     18 N         141.3460  136.2708  155.9782 N.ar    1  UNL1       -0.1892
     19 C         143.7309  134.0015  157.3223 C.3     1  UNL1        0.2542
     20 O         143.6805  135.3151  156.6000 O.3     1  UNL1       -0.4560
     21 C         141.0739  140.3193  163.0878 C.ar    1  UNL1        0.0622
     22 C         141.6784  139.4120  164.1181 C.ar    1  UNL1        0.0154
     23 C         141.3499  139.6011  165.5694 C.ar    1  UNL1        0.0014
     24 C         140.4168  140.6975  165.9905 C.ar    1  UNL1        0.0032
     25 C         139.8123  141.6049  164.9603 C.ar    1  UNL1        0.0014
     26 C         140.1409  141.4157  163.5090 C.ar    1  UNL1        0.0154
     27 C         140.0883  140.8866  167.4418 C.ar    1  UNL1        0.0407
     28 C         139.3588  139.9094  168.3153 C.ar    1  UNL1        0.1796
     29 O         139.2512  140.5049  169.6878 O.2     1  UNL1       -0.4493
     30 C         139.9142  141.8502  169.6625 C.ar    1  UNL1        0.1594
     31 C         140.4316  142.0861  168.2745 C.ar    1  UNL1        0.0418
     32 C         140.0382  142.7939  170.8218 C.2     1  UNL1        0.1076
     33 O         140.4806  142.2830  172.1609 O.co2   1  UNL1       -0.5415
     34 O         139.7197  144.2487  170.6422 O.co2   1  UNL1       -0.5415
     35 C         144.0646  142.4899  155.7833 C.3     1  UNL1        0.1183
     36 C         145.5215  142.2900  155.4880 C.ar    1  UNL1        0.0712
     37 N         146.5391  142.4723  156.5749 N.ar    1  UNL1       -0.2471
     38 C         147.9961  142.2724  156.2795 C.ar    1  UNL1        0.0985
     39 C         148.4355  141.8903  154.8972 C.ar    1  UNL1        0.0203
     40 C         147.4180  141.7080  153.8103 C.ar    1  UNL1       -0.0015
     41 C         145.9611  141.9079  154.1056 C.ar    1  UNL1       -0.0069
     42 C         144.9436  141.7256  153.0187 C.3     1  UNL1        0.0323
@<TRIPOS>UNITY_ATOM_ATTR
33 1
charge -1
@<TRIPOS>BOND
     1    19    20    1
     2    20    13    1
     3    13    14   ar
     4    14    15   ar
     5    15     1    1
     6     1     2   am
     7     2     3    2
     8     2     4   am
     9     4    21    1
    10    21    22   ar
    11    22    23   ar
    12    23    24   ar
    13    24    27    1
    14    27    28   ar
    15    28    29   ar
    16    29    30   ar
    17    30    32    1
    18    32    33   ar
    19    32    34   ar
    20    30    31   ar
    21    24    25   ar
    22    25    26   ar
    23     4     5   am
    24     5     6    2
    25     5     7    1
    26     7     8    1
    27     8     9    1
    28     9    10    1
    29    10    35    1
    30    35    36    1
    31    36    37   ar
    32    37    38   ar
    33    38    39   ar
    34    39    40   ar
    35    40    41   ar
    36    41    42    1
    37    10    11    1
    38    11    12    1
    39    15    16   ar
    40    16    17   ar
    41    17    18   ar
    42    18    13   ar
    43     7     1    1
    44    41    36   ar
    45    26    21   ar
    46    12     7    1
    47    31    27   ar
@<TRIPOS>MOLECULE
*****
 42 47 0 0 0
SMALL
GASTEIGER

@<TRIPOS>ATOM
      1 N         138.9187  140.6499  159.6311 N.am    1  UNL1       -0.2222
      2 C         138.5770  140.9796  161.0541 C.2     1  UNL1        0.3219
      3 O         137.4941  141.9134  161.5072 O.2     1  UNL1       -0.2512
      4 N         139.5084  140.2114  161.9444 N.am    1  UNL1       -0.1907
      5 C         140.4257  139.4071  161.0717 C.2     1  UNL1        0.2529
      6 O         141.5160  138.4923  161.5454 O.2     1  UNL1       -0.2724
      7 C         140.0613  139.6780  159.6420 C.3     1  UNL1        0.1391
      8 C         139.5856  140.0451  158.2676 C.3     1  UNL1        0.0449
      9 C         140.2475  139.4489  157.0608 C.3     1  UNL1        0.0746
     10 N         141.3850  138.4856  157.2284 N.3     1  UNL1       -0.2676
     11 C         141.8607  138.1185  158.6028 C.3     1  UNL1        0.0746
     12 C         141.1988  138.7147  159.8096 C.3     1  UNL1        0.0449
     13 C         137.9930  143.0559  156.6139 C.ar    1  UNL1        0.2293
     14 C         138.6743  142.5096  157.8335 C.ar    1  UNL1        0.0924
     15 C         138.2375  141.1962  158.4115 C.ar    1  UNL1        0.1453
     16 N         137.1194  140.4291  157.7700 N.ar    1  UNL1       -0.2084
     17 C         136.4382  140.9753  156.5505 C.ar    1  UNL1        0.2027
     18 N         136.8750  142.2888  155.9723 N.ar    1  UNL1       -0.1892
     19 C         137.6474  144.9942  154.9189 C.3     1  UNL1        0.2542
     20 O         138.4298  144.3692  156.0357 O.3     1  UNL1       -0.4560
     21 C         139.5204  140.2423  163.4439 C.ar    1  UNL1        0.0622
     22 C         140.6029  140.9844  164.1702 C.ar    1  UNL1        0.0154
     23 C         140.6149  141.0152  165.6698 C.ar    1  UNL1        0.0014
     24 C         139.5444  140.3040  166.4432 C.ar    1  UNL1        0.0032
     25 C         138.4618  139.5618  165.7169 C.ar    1  UNL1        0.0014
     26 C         138.4499  139.5310  164.2173 C.ar    1  UNL1        0.0154
     27 C         139.5564  140.3348  167.9429 C.ar    1  UNL1        0.0407
     28 C         138.5757  139.6480  168.8467 C.ar    1  UNL1        0.1796
     29 O         138.9644  139.9466  170.2644 O.2     1  UNL1       -0.4493
     30 C         140.1851  140.8178  170.2367 C.ar    1  UNL1        0.1594
     31 C         140.5510  141.0577  168.8020 C.ar    1  UNL1        0.0418
     32 C         140.9123  141.3549  171.4337 C.2     1  UNL1        0.1076
     33 O         140.2827  142.4243  172.2763 O.co2   1  UNL1       -0.5415
     34 O         142.2691  140.8226  171.7881 O.co2   1  UNL1       -0.5415
     35 C         142.0469  137.8894  156.0215 C.3     1  UNL1        0.1183
     36 C         142.1619  136.3998  155.8883 C.ar    1  UNL1        0.0712
     37 N         143.2331  135.6606  156.6341 N.ar    1  UNL1       -0.2471
     38 C         143.3481  134.1709  156.5008 C.ar    1  UNL1        0.0985
     39 C         142.3920  133.4205  155.6219 C.ar    1  UNL1        0.0203
     40 C         141.3208  134.1597  154.8761 C.ar    1  UNL1       -0.0015
     41 C         141.2057  135.6493  155.0093 C.ar    1  UNL1       -0.0069
     42 C         140.1345  136.3885  154.2636 C.3     1  UNL1        0.0323
@<TRIPOS>UNITY_ATOM_ATTR
33 1
charge -1
@<TRIPOS>BOND
     1    19    20    1
     2    20    13    1
     3    13    14   ar
     4    14    15   ar
     5    15     1    1
     6     1     2   am
     7     2     3    2
     8     2     4   am
     9     4    21    1
    10    21    22   ar
    11    22    23   ar
    12    23    24   ar
    13    24    27    1
    14    27    28   ar
    15    28    29   ar
    16    29    30   ar
    17    30    32    1
    18    32    33   ar
    19    32    34   ar
    20    30    31   ar
    21    24    25   ar
    22    25    26   ar
    23     4     5   am
    24     5     6    2
    25     5     7    1
    26     7     8    1
    27     8     9    1
    28     9    10    1
    29    10    35    1
    30    35    36    1
    31    36    37   ar
    32    37    38   ar
    33    38    39   ar
    34    39    40   ar
    35    40    41   ar
    36    41    42    1
    37    10    11    1
    38    11    12    1
    39    15    16   ar
    40    16    17   ar
    41    17    18   ar
    42    18    13   ar
    43     7     1    1
    44    41    36   ar
    45    26    21   ar
    46    12     7    1
    47    31    27   ar
@<TRIPOS>MOLECULE
*****
 42 47 0 0 0
SMALL
GASTEIGER

@<TRIPOS>ATOM
      1 N         142.3710  139.0415  159.3502 N.am    1  UNL1       -0.2222
      2 C         142.1384  138.7748  160.8080 C.2     1  UNL1        0.3219
      3 O         141.4812  137.5575  161.3878 O.2     1  UNL1       -0.2512
      4 N         142.6785  139.9394  161.5841 N.am    1  UNL1       -0.1907
      5 C         143.2447  140.9257  160.6061 C.2     1  UNL1        0.2529
      6 O         143.8881  142.2367  160.9484 O.2     1  UNL1       -0.2724
      7 C         143.0547  140.3708  159.2254 C.3     1  UNL1        0.1391
      8 C         142.7970  139.6916  157.9131 C.3     1  UNL1        0.0449
      9 C         143.2169  140.3503  156.6326 C.3     1  UNL1        0.0746
     10 N         143.8946  141.6881  156.6645 N.3     1  UNL1       -0.2676
     11 C         144.1523  142.3673  157.9768 C.3     1  UNL1        0.0746
     12 C         143.7324  141.7086  159.2573 C.3     1  UNL1        0.0449
     13 C         140.2082  137.2712  156.5327 C.ar    1  UNL1        0.2293
     14 C         140.5921  138.1751  157.6665 C.ar    1  UNL1        0.0924
     15 C         141.9871  138.1375  158.2164 C.ar    1  UNL1        0.1453
     16 N         142.9983  137.1960  157.6325 N.ar    1  UNL1       -0.2084
     17 C         142.6146  136.2921  156.4987 C.ar    1  UNL1        0.2027
     18 N         141.2195  136.3297  155.9488 N.ar    1  UNL1       -0.1892
     19 C         138.5912  137.2930  154.4994 C.3     1  UNL1        0.2542
     20 O         138.8132  137.3087  155.9828 O.3     1  UNL1       -0.4560
     21 C         142.6562  140.0909  163.0762 C.ar    1  UNL1        0.0622
     22 C         143.4810  139.1789  163.9351 C.ar    1  UNL1        0.0154
     23 C         143.4587  139.3305  165.4273 C.ar    1  UNL1        0.0014
     24 C         142.6115  140.3941  166.0605 C.ar    1  UNL1        0.0032
     25 C         141.7866  141.3062  165.2016 C.ar    1  UNL1        0.0014
     26 C         141.8090  141.1546  163.7094 C.ar    1  UNL1        0.0154
     27 C         142.5892  140.5457  167.5527 C.ar    1  UNL1        0.0407
     28 C         142.7203  139.4362  168.5537 C.ar    1  UNL1        0.1796
     29 O         142.6440  140.0382  169.9255 O.2     1  UNL1       -0.4493
     30 C         142.4656  141.5196  169.7723 C.ar    1  UNL1        0.1594
     31 C         142.4318  141.8333  168.3059 C.ar    1  UNL1        0.0418
     32 C         142.3428  142.5131  170.8894 C.2     1  UNL1        0.1076
     33 O         141.3312  142.2985  171.9760 O.co2   1  UNL1       -0.5415
     34 O         143.2314  143.7211  170.9200 O.co2   1  UNL1       -0.5415
     35 C         144.3146  142.3468  155.3839 C.3     1  UNL1        0.1183
     36 C         145.7699  142.4504  155.0359 C.ar    1  UNL1        0.0712
     37 N         146.7512  141.4759  155.6168 N.ar    1  UNL1       -0.2471
     38 C         148.2066  141.5795  155.2688 C.ar    1  UNL1        0.0985
     39 C         148.6807  142.6575  154.3399 C.ar    1  UNL1        0.0203
     40 C         147.6995  143.6321  153.7590 C.ar    1  UNL1       -0.0015
     41 C         146.2441  143.5285  154.1069 C.ar    1  UNL1       -0.0069
     42 C         145.2629  144.5030  153.5260 C.3     1  UNL1        0.0323
@<TRIPOS>UNITY_ATOM_ATTR
33 1
charge -1
@<TRIPOS>BOND
     1    19    20    1
     2    20    13    1
     3    13    14   ar
     4    14    15   ar
     5    15     1    1
     6     1     2   am
     7     2     3    2
     8     2     4   am
     9     4    21    1
    10    21    22   ar
    11    22    23   ar
    12    23    24   ar
    13    24    27    1
    14    27    28   ar
    15    28    29   ar
    16    29    30   ar
    17    30    32    1
    18    32    33   ar
    19    32    34   ar
    20    30    31   ar
    21    24    25   ar
    22    25    26   ar
    23     4     5   am
    24     5     6    2
    25     5     7    1
    26     7     8    1
    27     8     9    1
    28     9    10    1
    29    10    35    1
    30    35    36    1
    31    36    37   ar
    32    37    38   ar
    33    38    39   ar
    34    39    40   ar
    35    40    41   ar
    36    41    42    1
    37    10    11    1
    38    11    12    1
    39    15    16   ar
    40    16    17   ar
    41    17    18   ar
    42    18    13   ar
    43     7     1    1
    44    41    36   ar
    45    26    21   ar
    46    12     7    1
    47    31    27   ar
@<TRIPOS>MOLECULE
*****
 42 47 0 0 0
SMALL
GASTEIGER

@<TRIPOS>ATOM
      1 N         140.3299  141.1826  161.7425 N.am    1  UNL1       -0.2222
      2 C         140.5279  140.7920  160.3077 C.2     1  UNL1        0.3219
      3 O         140.4976  141.7195  159.1292 O.2     1  UNL1       -0.2512
      4 N         140.7614  139.3111  160.2585 N.am    1  UNL1       -0.1907
      5 C         140.7078  138.7865  161.6627 C.2     1  UNL1        0.2529
      6 O         140.8891  137.3563  162.0772 O.2     1  UNL1       -0.2724
      7 C         140.4411  139.9431  162.5799 C.3     1  UNL1        0.1391
      8 C         140.1727  141.1904  163.3688 C.3     1  UNL1        0.0449
      9 C         140.0405  141.1199  164.8612 C.3     1  UNL1        0.0746
     10 N         140.1766  139.8021  165.5648 N.3     1  UNL1       -0.2676
     11 C         140.4450  138.5549  164.7760 C.3     1  UNL1        0.0746
     12 C         140.5773  138.6254  163.2835 C.3     1  UNL1        0.0449
     13 C         140.9484  144.8324  163.1730 C.ar    1  UNL1        0.2293
     14 C         141.2114  143.4458  162.6650 C.ar    1  UNL1        0.0924
     15 C         140.0669  142.5693  162.2505 C.ar    1  UNL1        0.1453
     16 N         138.6594  143.0794  162.3440 N.ar    1  UNL1       -0.2084
     17 C         138.3963  144.4659  162.8520 C.ar    1  UNL1        0.2027
     18 N         139.5409  145.3425  163.2665 N.ar    1  UNL1       -0.1892
     19 C         143.4445  145.1088  163.8385 C.3     1  UNL1        0.2542
     20 O         142.0928  145.7089  163.5876 O.3     1  UNL1       -0.4560
     21 C         141.0057  138.4977  159.0222 C.ar    1  UNL1        0.0622
     22 C         139.8909  138.2630  158.0465 C.ar    1  UNL1        0.0154
     23 C         140.1352  137.4495  156.8101 C.ar    1  UNL1        0.0014
     24 C         141.4943  136.8708  156.5494 C.ar    1  UNL1        0.0032
     25 C         142.6092  137.1056  157.5252 C.ar    1  UNL1        0.0014
     26 C         142.3648  137.9190  158.7615 C.ar    1  UNL1        0.0154
     27 C         141.7386  136.0574  155.3130 C.ar    1  UNL1        0.0407
     28 C         141.9755  136.5985  153.9342 C.ar    1  UNL1        0.1796
     29 O         142.1722  135.4356  153.0074 O.2     1  UNL1       -0.4493
     30 C         142.0568  134.1758  153.8134 C.ar    1  UNL1        0.1594
     31 C         141.7888  134.5601  155.2383 C.ar    1  UNL1        0.0418
     32 C         142.1866  132.7773  153.2869 C.2     1  UNL1        0.1076
     33 O         143.2976  131.8936  153.7714 O.co2   1  UNL1       -0.5415
     34 O         141.2054  132.2623  152.2759 O.co2   1  UNL1       -0.5415
     35 C         140.0444  139.7317  167.0574 C.3     1  UNL1        0.1183
     36 C         140.8295  140.6701  167.9250 C.ar    1  UNL1        0.0712
     37 N         140.1841  141.9138  168.4605 N.ar    1  UNL1       -0.2471
     38 C         140.9693  142.8523  169.3282 C.ar    1  UNL1        0.0985
     39 C         142.3998  142.5471  169.6604 C.ar    1  UNL1        0.0203
     40 C         143.0452  141.3034  169.1249 C.ar    1  UNL1       -0.0015
     41 C         142.2601  140.3649  168.2572 C.ar    1  UNL1       -0.0069
     42 C         142.9055  139.1213  167.7217 C.3     1  UNL1        0.0323
@<TRIPOS>UNITY_ATOM_ATTR
33 1
charge -1
@<TRIPOS>BOND
     1    19    20    1
     2    20    13    1
     3    13    14   ar
     4    14    15   ar
     5    15     1    1
     6     1     2   am
     7     2     3    2
     8     2     4   am
     9     4    21    1
    10    21    22   ar
    11    22    23   ar
    12    23    24   ar
    13    24    27    1
    14    27    28   ar
    15    28    29   ar
    16    29    30   ar
    17    30    32    1
    18    32    33   ar
    19    32    34   ar
    20    30    31   ar
    21    24    25   ar
    22    25    26   ar
    23     4     5   am
    24     5     6    2
    25     5     7    1
    26     7     8    1
    27     8     9    1
    28     9    10    1
    29    10    35    1
    30    35    36    1
    31    36    37   ar
    32    37    38   ar
    33    38    39   ar
    34    39    40   ar
    35    40    41   ar
    36    41    42    1
    37    10    11    1
    38    11    12    1
    39    15    16   ar
    40    16    17   ar
    41    17    18   ar
    42    18    13   ar
    43     7     1    1
    44    41    36   ar
    45    26    21   ar
    46    12     7    1
    47    31    27   ar
@<TRIPOS>MOLECULE
*****
 42 47 0 0 0
SMALL
GASTEIGER

@<TRIPOS>ATOM
      1 N         138.8909  141.3452  158.8118 N.am    1  UNL1       -0.2222
      2 C         138.7046  141.7656  160.2397 C.2     1  UNL1        0.3219
      3 O         137.9048  142.9420  160.7153 O.2     1  UNL1       -0.2512
      4 N         139.4586  140.8028  161.1084 N.am    1  UNL1       -0.1907
      5 C         140.1109  139.7875  160.2175 C.2     1  UNL1        0.2529
      6 O         140.9642  138.6387  160.6669 O.2     1  UNL1       -0.2724
      7 C         139.7600  140.1227  158.7981 C.3     1  UNL1        0.1391
      8 C         139.3274  140.5791  157.4363 C.3     1  UNL1        0.0449
      9 C         139.7682  139.8244  156.2173 C.3     1  UNL1        0.0746
     10 N         140.6416  138.6133  156.3601 N.3     1  UNL1       -0.2676
     11 C         141.0742  138.1569  157.7219 C.3     1  UNL1        0.0746
     12 C         140.6334  138.9116  158.9409 C.3     1  UNL1        0.0449
     13 C         136.4192  142.2469  155.8407 C.ar    1  UNL1        0.2293
     14 C         137.0001  141.5645  157.0436 C.ar    1  UNL1        0.0924
     15 C         138.3100  142.0276  157.6089 C.ar    1  UNL1        0.1453
     16 N         139.0390  143.1731  156.9714 N.ar    1  UNL1       -0.2084
     17 C         138.4582  143.8555  155.7686 C.ar    1  UNL1        0.2027
     18 N         137.1482  143.3924  155.2032 N.ar    1  UNL1       -0.1892
     19 C         134.3715  140.6502  155.9236 C.3     1  UNL1        0.2542
     20 O         135.1093  141.7839  155.2753 O.3     1  UNL1       -0.4560
     21 C         139.5452  140.8475  162.6052 C.ar    1  UNL1        0.0622
     22 C         140.8221  141.2683  163.2703 C.ar    1  UNL1        0.0154
     23 C         140.9087  141.3130  164.7672 C.ar    1  UNL1        0.0014
     24 C         139.7184  140.9369  165.5989 C.ar    1  UNL1        0.0032
     25 C         138.4414  140.5161  164.9337 C.ar    1  UNL1        0.0014
     26 C         138.3549  140.4714  163.4368 C.ar    1  UNL1        0.0154
     27 C         139.8049  140.9816  167.0957 C.ar    1  UNL1        0.0407
     28 C         139.3676  139.8985  168.0369 C.ar    1  UNL1        0.1796
     29 O         139.6364  140.3647  169.4370 O.2     1  UNL1       -0.4493
     30 C         140.2398  141.7359  169.3612 C.ar    1  UNL1        0.1594
     31 C         140.3440  142.1172  167.9142 C.ar    1  UNL1        0.0418
     32 C         140.6645  142.5781  170.5275 C.2     1  UNL1        0.1076
     33 O         140.6241  142.0115  171.9158 O.co2   1  UNL1       -0.5415
     34 O         141.1296  143.9867  170.3057 O.co2   1  UNL1       -0.5415
     35 C         141.0824  137.8585  155.1410 C.3     1  UNL1        0.1183
     36 C         141.7866  136.5423  155.2877 C.ar    1  UNL1        0.0712
     37 N         140.9958  135.2681  155.3204 N.ar    1  UNL1       -0.2471
     38 C         141.7000  133.9518  155.4670 C.ar    1  UNL1        0.0985
     39 C         143.1951  133.9097  155.5810 C.ar    1  UNL1        0.0203
     40 C         143.9859  135.1839  155.5483 C.ar    1  UNL1       -0.0015
     41 C         143.2817  136.5001  155.4016 C.ar    1  UNL1       -0.0069
     42 C         144.0726  137.7743  155.3689 C.3     1  UNL1        0.0323
@<TRIPOS>UNITY_ATOM_ATTR
33 1
charge -1
@<TRIPOS>BOND
     1    19    20    1
     2    20    13    1
     3    13    14   ar
     4    14    15   ar
     5    15     1    1
     6     1     2   am
     7     2     3    2
     8     2     4   am
     9     4    21    1
    10    21    22   ar
    11    22    23   ar
    12    23    24   ar
    13    24    27    1
    14    27    28   ar
    15    28    29   ar
    16    29    30   ar
    17    30    32    1
    18    32    33   ar
    19    32    34   ar
    20    30    31   ar
    21    24    25   ar
    22    25    26   ar
    23     4     5   am
    24     5     6    2
    25     5     7    1
    26     7     8    1
    27     8     9    1
    28     9    10    1
    29    10    35    1
    30    35    36    1
    31    36    37   ar
    32    37    38   ar
    33    38    39   ar
    34    39    40   ar
    35    40    41   ar
    36    41    42    1
    37    10    11    1
    38    11    12    1
    39    15    16   ar
    40    16    17   ar
    41    17    18   ar
    42    18    13   ar
    43     7     1    1
    44    41    36   ar
    45    26    21   ar
    46    12     7    1
    47    31    27   ar
@<TRIPOS>MOLECULE
*****
 42 47 0 0 0
SMALL
GASTEIGER

@<TRIPOS>ATOM
      1 N         140.4248  143.5141  159.0411 N.am    1  UNL1       -0.2222
      2 C         140.9843  143.7680  160.4096 C.2     1  UNL1        0.3219
      3 O         141.9909  144.8204  160.7692 O.2     1  UNL1       -0.2512
      4 N         140.3605  142.7848  161.3552 N.am    1  UNL1       -0.1907
      5 C         139.4155  141.9232  160.5712 C.2     1  UNL1        0.2529
      6 O         138.5778  140.8069  161.1208 O.2     1  UNL1       -0.2724
      7 C         139.4552  142.3739  159.1410 C.3     1  UNL1        0.1391
      8 C         139.6000  142.9322  157.7563 C.3     1  UNL1        0.0449
      9 C         138.8090  142.3457  156.6248 C.3     1  UNL1        0.0746
     10 N         137.8733  141.2010  156.8779 N.3     1  UNL1       -0.2676
     11 C         137.7285  140.6428  158.2626 C.3     1  UNL1        0.0746
     12 C         138.5195  141.2292  159.3941 C.3     1  UNL1        0.0449
     13 C         140.3451  146.2476  156.1651 C.ar    1  UNL1        0.2293
     14 C         139.9962  145.4937  157.4141 C.ar    1  UNL1        0.0924
     15 C         140.7737  144.2679  157.7921 C.ar    1  UNL1        0.1453
     16 N         141.9001  143.7960  156.9212 N.ar    1  UNL1       -0.2084
     17 C         142.2490  144.5498  155.6722 C.ar    1  UNL1        0.2027
     18 N         141.4714  145.7756  155.2942 N.ar    1  UNL1       -0.1892
     19 C         139.8332  148.1557  154.4779 C.3     1  UNL1        0.2542
     20 O         139.5676  147.4734  155.7870 O.3     1  UNL1       -0.4560
     21 C         140.6337  142.6813  162.8264 C.ar    1  UNL1        0.0622
     22 C         139.9363  143.6002  163.7852 C.ar    1  UNL1        0.0154
     23 C         140.2095  143.4967  165.2565 C.ar    1  UNL1        0.0014
     24 C         141.1802  142.4744  165.7690 C.ar    1  UNL1        0.0032
     25 C         141.8776  141.5554  164.8102 C.ar    1  UNL1        0.0014
     26 C         141.6043  141.6590  163.3389 C.ar    1  UNL1        0.0154
     27 C         141.4534  142.3709  167.2402 C.ar    1  UNL1        0.0407
     28 C         142.8069  142.2938  167.8824 C.ar    1  UNL1        0.1796
     29 O         142.6111  142.2016  169.3666 O.2     1  UNL1       -0.4493
     30 C         141.1367  142.2217  169.6419 C.ar    1  UNL1        0.1594
     31 C         140.4212  142.3263  168.3277 C.ar    1  UNL1        0.0418
     32 C         140.4911  142.1498  170.9939 C.2     1  UNL1        0.1076
     33 O         139.4561  143.1624  171.3857 O.co2   1  UNL1       -0.5415
     34 O         140.8805  141.0653  171.9543 O.co2   1  UNL1       -0.5415
     35 C         137.0823  140.6146  155.7463 C.3     1  UNL1        0.1183
     36 C         135.5831  140.6382  155.7878 C.ar    1  UNL1        0.0712
     37 N         134.8524  139.9391  156.8956 N.ar    1  UNL1       -0.2471
     38 C         133.3531  139.9628  156.9370 C.ar    1  UNL1        0.0985
     39 C         132.5846  140.6855  155.8707 C.ar    1  UNL1        0.0203
     40 C         133.3154  141.3847  154.7629 C.ar    1  UNL1       -0.0015
     41 C         134.8146  141.3610  154.7214 C.ar    1  UNL1       -0.0069
     42 C         135.5454  142.0601  153.6136 C.3     1  UNL1        0.0323
@<TRIPOS>UNITY_ATOM_ATTR
33 1
charge -1
@<TRIPOS>BOND
     1    19    20    1
     2    20    13    1
     3    13    14   ar
     4    14    15   ar
     5    15     1    1
     6     1     2   am
     7     2     3    2
     8     2     4   am
     9     4    21    1
    10    21    22   ar
    11    22    23   ar
    12    23    24   ar
    13    24    27    1
    14    27    28   ar
    15    28    29   ar
    16    29    30   ar
    17    30    32    1
    18    32    33   ar
    19    32    34   ar
    20    30    31   ar
    21    24    25   ar
    22    25    26   ar
    23     4     5   am
    24     5     6    2
    25     5     7    1
    26     7     8    1
    27     8     9    1
    28     9    10    1
    29    10    35    1
    30    35    36    1
    31    36    37   ar
    32    37    38   ar
    33    38    39   ar
    34    39    40   ar
    35    40    41   ar
    36    41    42    1
    37    10    11    1
    38    11    12    1
    39    15    16   ar
    40    16    17   ar
    41    17    18   ar
    42    18    13   ar
    43     7     1    1
    44    41    36   ar
    45    26    21   ar
    46    12     7    1
    47    31    27   ar
@<TRIPOS>MOLECULE
*****
 42 47 0 0 0
SMALL
GASTEIGER

@<TRIPOS>ATOM
      1 N         141.6646  141.1446  162.0270 N.am    1  UNL1       -0.2222
      2 C         141.5130  140.8074  160.5732 C.2     1  UNL1        0.3219
      3 O         141.3678  141.7913  159.4503 O.2     1  UNL1       -0.2512
      4 N         141.5320  139.3134  160.4395 N.am    1  UNL1       -0.1907
      5 C         141.6954  138.7274  161.8105 C.2     1  UNL1        0.2529
      6 O         141.7647  137.2662  162.1423 O.2     1  UNL1       -0.2724
      7 C         141.7774  139.8591  162.7917 C.3     1  UNL1        0.1391
      8 C         141.8437  141.0874  163.6500 C.3     1  UNL1        0.0449
      9 C         142.0093  140.9566  165.1351 C.3     1  UNL1        0.0746
     10 N         142.1086  139.5974  165.7618 N.3     1  UNL1       -0.2676
     11 C         142.0423  138.3691  164.9035 C.3     1  UNL1        0.0746
     12 C         141.8767  138.4999  163.4184 C.3     1  UNL1        0.0449
     13 C         140.4705  144.5285  163.7220 C.ar    1  UNL1        0.2293
     14 C         140.4375  143.1481  163.1360 C.ar    1  UNL1        0.0924
     15 C         141.6977  142.5250  162.6130 C.ar    1  UNL1        0.1453
     16 N         142.9910  143.2822  162.6762 N.ar    1  UNL1       -0.2084
     17 C         143.0242  144.6625  163.2622 C.ar    1  UNL1        0.2027
     18 N         141.7639  145.2857  163.7852 N.ar    1  UNL1       -0.1892
     19 C         138.0463  144.2849  164.6239 C.3     1  UNL1        0.2542
     20 O         139.2104  145.1517  164.2450 O.3     1  UNL1       -0.4560
     21 C         141.4092  138.5412  159.1595 C.ar    1  UNL1        0.0622
     22 C         140.0866  138.4596  158.4567 C.ar    1  UNL1        0.0154
     23 C         139.9638  137.6873  157.1766 C.ar    1  UNL1        0.0014
     24 C         141.1636  136.9966  156.5994 C.ar    1  UNL1        0.0032
     25 C         142.4864  137.0782  157.3022 C.ar    1  UNL1        0.0014
     26 C         142.6091  137.8505  158.5822 C.ar    1  UNL1        0.0154
     27 C         141.0409  136.2244  155.3193 C.ar    1  UNL1        0.0407
     28 C         140.4660  136.7369  154.0320 C.ar    1  UNL1        0.1796
     29 O         140.5412  135.6333  153.0189 O.2     1  UNL1       -0.4493
     30 C         141.1625  134.4387  153.6800 C.ar    1  UNL1        0.1594
     31 C         141.4713  134.8040  155.1017 C.ar    1  UNL1        0.0418
     32 C         141.4283  133.1118  153.0331 C.2     1  UNL1        0.1076
     33 O         140.3912  132.4884  152.1467 O.co2   1  UNL1       -0.5415
     34 O         142.7313  132.4083  153.2723 O.co2   1  UNL1       -0.5415
     35 C         142.2743  139.4666  167.2469 C.3     1  UNL1        0.1183
     36 C         141.9272  140.6172  168.1445 C.ar    1  UNL1        0.0712
     37 N         143.0050  141.5388  168.6332 N.ar    1  UNL1       -0.2471
     38 C         142.6579  142.6895  169.5308 C.ar    1  UNL1        0.0985
     39 C         141.2330  142.9184  169.9397 C.ar    1  UNL1        0.0203
     40 C         140.1552  141.9967  169.4510 C.ar    1  UNL1       -0.0015
     41 C         140.5022  140.8462  168.5534 C.ar    1  UNL1       -0.0069
     42 C         139.4244  139.9245  168.0647 C.3     1  UNL1        0.0323
@<TRIPOS>UNITY_ATOM_ATTR
33 1
charge -1
@<TRIPOS>BOND
     1    19    20    1
     2    20    13    1
     3    13    14   ar
     4    14    15   ar
     5    15     1    1
     6     1     2   am
     7     2     3    2
     8     2     4   am
     9     4    21    1
    10    21    22   ar
    11    22    23   ar
    12    23    24   ar
    13    24    27    1
    14    27    28   ar
    15    28    29   ar
    16    29    30   ar
    17    30    32    1
    18    32    33   ar
    19    32    34   ar
    20    30    31   ar
    21    24    25   ar
    22    25    26   ar
    23     4     5   am
    24     5     6    2
    25     5     7    1
    26     7     8    1
    27     8     9    1
    28     9    10    1
    29    10    35    1
    30    35    36    1
    31    36    37   ar
    32    37    38   ar
    33    38    39   ar
    34    39    40   ar
    35    40    41   ar
    36    41    42    1
    37    10    11    1
    38    11    12    1
    39    15    16   ar
    40    16    17   ar
    41    17    18   ar
    42    18    13   ar
    43     7     1    1
    44    41    36   ar
    45    26    21   ar
    46    12     7    1
    47    31    27   ar
