@<TRIPOS>MOLECULE
*****
 39 42 0 0 0
SMALL
GASTEIGER

@<TRIPOS>ATOM
      1 C         138.1203  139.4798  161.3507 C.3     1  UNL1        0.0718
      2 C         138.6762  138.2690  162.0399 C.3     1  UNL1        0.0201
      3 C         138.8113  138.2522  163.5337 C.3     1  UNL1        0.0108
      4 C         138.3905  139.4463  164.3383 C.3     1  UNL1        0.0766
      5 C         137.8347  140.6570  163.6491 C.3     1  UNL1        0.0108
      6 C         137.6995  140.6738  162.1553 C.3     1  UNL1        0.0201
      7 C         138.5257  139.4295  165.8321 C.2     1  UNL1        0.2222
      8 O         137.4895  138.7424  166.6713 O.2     1  UNL1       -0.2751
      9 N         139.6970  140.0999  166.4868 N.am    1  UNL1       -0.3004
     10 H         140.3771  140.5509  165.9361 H       1  UNL1        0.1497
     11 C         139.8321  140.0831  167.9806 C.3     1  UNL1        0.1163
     12 C         140.7624  141.0435  168.6604 C.ar    1  UNL1        0.0013
     13 C         140.2249  142.3047  169.2690 C.ar    1  UNL1       -0.0027
     14 C         141.1552  143.2652  169.9488 C.ar    1  UNL1       -0.0003
     15 C         142.6230  142.9644  170.0199 C.ar    1  UNL1       -0.0001
     16 C         143.1605  141.7031  169.4113 C.ar    1  UNL1        0.0036
     17 C         142.2302  140.7427  168.7316 C.ar    1  UNL1        0.0691
     18 C         142.7678  139.4815  168.1230 C.3     1  UNL1        0.4183
     19 F         143.3053  138.2203  167.5144 F       1  UNL1       -0.1659
     20 F         142.5411  138.7599  169.4183 F       1  UNL1       -0.1659
     21 F         142.9944  140.2031  166.8277 F       1  UNL1       -0.1659
     22 N         137.9852  139.4966  159.8569 N.pl3   1  UNL1       -0.3045
     23 H         137.0922  139.4711  159.4431 H       1  UNL1        0.1496
     24 C         141.1542  140.9096  157.9306 C.ar    1  UNL1        0.2217
     25 N         139.9289  140.8539  158.7938 N.ar    1  UNL1       -0.1810
     26 C         139.2106  139.5522  158.9936 C.ar    1  UNL1        0.2216
     27 N         139.7178  138.3063  158.3301 N.ar    1  UNL1       -0.1808
     28 C         140.9432  138.3620  157.4668 C.ar    1  UNL1        0.2249
     29 N         141.6614  139.6636  157.2670 N.ar    1  UNL1       -0.1808
     30 N         141.4504  137.1159  156.8032 N.pl3   1  UNL1       -0.2752
     31 C         142.7685  136.5303  157.2150 C.3     1  UNL1        0.1109
     32 C         143.2758  135.2843  156.5515 C.3     1  UNL1        0.0939
     33 N         142.4649  134.6240  155.4761 N.3     1  UNL1       -0.2686
     34 C         142.9720  133.3780  154.8126 C.3     1  UNL1        0.0897
     35 C         141.1467  135.2097  155.0643 C.3     1  UNL1        0.0939
     36 C         140.6395  136.4556  155.7279 C.3     1  UNL1        0.1109
     37 C         143.1970  142.2367  157.0273 C.3     1  UNL1        0.1108
     38 N         141.8724  142.2112  157.7308 N.pl3   1  UNL1       -0.3012
     39 H         141.4745  143.0488  158.0614 H       1  UNL1        0.1497
@<TRIPOS>BOND
     1    37    38    1
     2    38    24    1
     3    24    25   ar
     4    25    26   ar
     5    26    22    1
     6    22     1    1
     7     1     2    1
     8     2     3    1
     9     3     4    1
    10     4     7    1
    11     7     8    2
    12     7     9   am
    13     9    11    1
    14    11    12    1
    15    12    13   ar
    16    13    14   ar
    17    14    15   ar
    18    15    16   ar
    19    16    17   ar
    20    17    18    1
    21    18    19    1
    22    18    20    1
    23    18    21    1
    24     4     5    1
    25     5     6    1
    26    26    27   ar
    27    27    28   ar
    28    28    30    1
    29    30    31    1
    30    31    32    1
    31    32    33    1
    32    33    34    1
    33    33    35    1
    34    35    36    1
    35    28    29   ar
    36    29    24   ar
    37     6     1    1
    38    36    30    1
    39    17    12   ar
    40    38    39    1
    41    22    23    1
    42     9    10    1
@<TRIPOS>MOLECULE
*****
 39 42 0 0 0
SMALL
GASTEIGER

@<TRIPOS>ATOM
      1 C         143.7526  139.2415  161.1108 C.3     1  UNL1        0.0718
      2 C         142.8812  138.1999  161.7478 C.3     1  UNL1        0.0201
      3 C         142.7895  138.1105  163.2423 C.3     1  UNL1        0.0108
      4 C         143.5691  139.0628  164.0999 C.3     1  UNL1        0.0766
      5 C         144.4404  140.1044  163.4629 C.3     1  UNL1        0.0108
      6 C         144.5322  140.1938  161.9684 C.3     1  UNL1        0.0201
      7 C         143.4774  138.9734  165.5944 C.2     1  UNL1        0.2222
      8 O         144.1788  137.8664  166.3240 O.2     1  UNL1       -0.2751
      9 N         142.6842  139.9912  166.3593 N.am    1  UNL1       -0.3004
     10 H         142.2238  140.7178  165.8804 H       1  UNL1        0.1497
     11 C         142.5924  139.9019  167.8538 C.3     1  UNL1        0.1163
     12 C         142.1213  141.0837  168.6483 C.ar    1  UNL1        0.0013
     13 C         143.1175  141.9757  169.3280 C.ar    1  UNL1       -0.0027
     14 C         142.6464  143.1576  170.1226 C.ar    1  UNL1       -0.0003
     15 C         141.1791  143.4475  170.2374 C.ar    1  UNL1       -0.0001
     16 C         140.1830  142.5554  169.5576 C.ar    1  UNL1        0.0036
     17 C         140.6541  141.3736  168.7631 C.ar    1  UNL1        0.0691
     18 C         139.6579  140.4816  168.0834 C.3     1  UNL1        0.4183
     19 F         138.6617  139.5896  167.4037 F       1  UNL1       -0.1659
     20 F         139.7390  141.3311  166.8498 F       1  UNL1       -0.1659
     21 F         139.5769  139.6321  169.3169 F       1  UNL1       -0.1659
     22 N         143.8443  139.3309  159.6163 N.pl3   1  UNL1       -0.3045
     23 H         144.6078  139.7894  159.1965 H       1  UNL1        0.1496
     24 C         140.3417  138.7429  157.8455 C.ar    1  UNL1        0.2217
     25 N         141.4131  139.3521  158.7004 N.ar    1  UNL1       -0.1810
     26 C         142.7729  138.7217  158.7613 C.ar    1  UNL1        0.2216
     27 N         143.0611  137.4822  157.9674 N.ar    1  UNL1       -0.1808
     28 C         141.9897  136.8730  157.1125 C.ar    1  UNL1        0.2249
     29 N         140.6299  137.5034  157.0516 N.ar    1  UNL1       -0.1808
     30 N         142.2780  135.6334  156.3185 N.pl3   1  UNL1       -0.2752
     31 C         143.4360  134.7561  156.6916 C.3     1  UNL1        0.1109
     32 C         143.7242  133.5165  155.8976 C.3     1  UNL1        0.0939
     33 N         142.8544  133.1543  154.7304 N.3     1  UNL1       -0.2686
     34 C         143.1426  131.9148  153.9364 C.3     1  UNL1        0.0897
     35 C         141.6963  134.0317  154.3573 C.3     1  UNL1        0.0939
     36 C         141.4081  135.2712  155.1513 C.3     1  UNL1        0.1109
     37 C         138.5520  140.1116  156.5517 C.3     1  UNL1        0.1108
     38 N         138.9819  139.3733  157.7846 N.pl3   1  UNL1       -0.3012
     39 H         138.3716  139.3025  158.5539 H       1  UNL1        0.1497
@<TRIPOS>BOND
     1    37    38    1
     2    38    24    1
     3    24    25   ar
     4    25    26   ar
     5    26    22    1
     6    22     1    1
     7     1     2    1
     8     2     3    1
     9     3     4    1
    10     4     7    1
    11     7     8    2
    12     7     9   am
    13     9    11    1
    14    11    12    1
    15    12    13   ar
    16    13    14   ar
    17    14    15   ar
    18    15    16   ar
    19    16    17   ar
    20    17    18    1
    21    18    19    1
    22    18    20    1
    23    18    21    1
    24     4     5    1
    25     5     6    1
    26    26    27   ar
    27    27    28   ar
    28    28    30    1
    29    30    31    1
    30    31    32    1
    31    32    33    1
    32    33    34    1
    33    33    35    1
    34    35    36    1
    35    28    29   ar
    36    29    24   ar
    37     6     1    1
    38    36    30    1
    39    17    12   ar
    40    38    39    1
    41    22    23    1
    42     9    10    1
@<TRIPOS>MOLECULE
*****
 39 42 0 0 0
SMALL
GASTEIGER

@<TRIPOS>ATOM
      1 C         142.2990  138.0681  158.6506 C.3     1  UNL1        0.0718
      2 C         142.7935  137.8290  160.0464 C.3     1  UNL1        0.0201
      3 C         141.8774  138.0460  161.2141 C.3     1  UNL1        0.0108
      4 C         140.4667  138.5021  160.9860 C.3     1  UNL1        0.0766
      5 C         139.9722  138.7412  159.5902 C.3     1  UNL1        0.0108
      6 C         140.8884  138.5242  158.4225 C.3     1  UNL1        0.0201
      7 C         139.5506  138.7191  162.1538 C.2     1  UNL1        0.2222
      8 O         138.7117  137.5875  162.6693 O.2     1  UNL1       -0.2751
      9 N         139.4733  140.0678  162.8059 N.am    1  UNL1       -0.3004
     10 H         140.0238  140.8105  162.4675 H       1  UNL1        0.1497
     11 C         138.5571  140.2847  163.9737 C.3     1  UNL1        0.1163
     12 C         139.1228  140.6606  165.3110 C.ar    1  UNL1        0.0013
     13 C         139.6931  142.0312  165.5258 C.ar    1  UNL1       -0.0027
     14 C         140.2588  142.4072  166.8632 C.ar    1  UNL1       -0.0003
     15 C         140.2543  141.4124  167.9859 C.ar    1  UNL1       -0.0001
     16 C         139.6840  140.0417  167.7711 C.ar    1  UNL1        0.0036
     17 C         139.1183  139.6658  166.4337 C.ar    1  UNL1        0.0691
     18 C         138.5481  138.2952  166.2190 C.3     1  UNL1        0.4183
     19 F         137.9777  136.9245  166.0043 F       1  UNL1       -0.1659
     20 F         139.8372  137.8575  165.5895 F       1  UNL1       -0.1659
     21 F         137.2589  138.7329  166.8485 F       1  UNL1       -0.1659
     22 N         143.2151  137.8511  157.4828 N.pl3   1  UNL1       -0.3045
     23 H         143.9399  138.4919  157.3001 H       1  UNL1        0.1496
     24 C         142.3023  135.6420  154.3148 C.ar    1  UNL1        0.2217
     25 N         142.4905  136.8352  155.2040 N.ar    1  UNL1       -0.1810
     26 C         143.0270  136.6578  156.5936 C.ar    1  UNL1        0.2216
     27 N         143.3753  135.2873  157.0938 N.ar    1  UNL1       -0.1808
     28 C         143.1872  134.0941  156.2045 C.ar    1  UNL1        0.2249
     29 N         142.6507  134.2715  154.8150 N.ar    1  UNL1       -0.1808
     30 N         143.5355  132.7235  156.7048 N.pl3   1  UNL1       -0.2752
     31 C         144.7191  132.5325  157.6062 C.3     1  UNL1        0.1109
     32 C         145.0674  131.1619  158.1065 C.3     1  UNL1        0.0939
     33 N         144.2321  129.9824  157.7052 N.3     1  UNL1       -0.2686
     34 C         144.5804  128.6118  158.2054 C.3     1  UNL1        0.0897
     35 C         143.0485  130.1734  156.8037 C.3     1  UNL1        0.0939
     36 C         142.7003  131.5440  156.3035 C.3     1  UNL1        0.1109
     37 C         140.2901  135.9734  152.7051 C.3     1  UNL1        0.1108
     38 N         141.7658  135.8193  152.9253 N.pl3   1  UNL1       -0.3012
     39 H         142.3823  135.8346  152.1578 H       1  UNL1        0.1497
@<TRIPOS>BOND
     1    37    38    1
     2    38    24    1
     3    24    25   ar
     4    25    26   ar
     5    26    22    1
     6    22     1    1
     7     1     2    1
     8     2     3    1
     9     3     4    1
    10     4     7    1
    11     7     8    2
    12     7     9   am
    13     9    11    1
    14    11    12    1
    15    12    13   ar
    16    13    14   ar
    17    14    15   ar
    18    15    16   ar
    19    16    17   ar
    20    17    18    1
    21    18    19    1
    22    18    20    1
    23    18    21    1
    24     4     5    1
    25     5     6    1
    26    26    27   ar
    27    27    28   ar
    28    28    30    1
    29    30    31    1
    30    31    32    1
    31    32    33    1
    32    33    34    1
    33    33    35    1
    34    35    36    1
    35    28    29   ar
    36    29    24   ar
    37     6     1    1
    38    36    30    1
    39    17    12   ar
    40    38    39    1
    41    22    23    1
    42     9    10    1
@<TRIPOS>MOLECULE
*****
 39 42 0 0 0
SMALL
GASTEIGER

@<TRIPOS>ATOM
      1 C         143.6943  139.1459  161.1444 C.3     1  UNL1        0.0718
      2 C         144.5185  140.0617  162.0001 C.3     1  UNL1        0.0201
      3 C         144.4291  139.9740  163.4949 C.3     1  UNL1        0.0108
      4 C         143.5155  138.9704  164.1340 C.3     1  UNL1        0.0766
      5 C         142.6914  138.0547  163.2783 C.3     1  UNL1        0.0108
      6 C         142.7808  138.1425  161.7836 C.3     1  UNL1        0.0201
      7 C         143.4261  138.8827  165.6287 C.2     1  UNL1        0.2222
      8 O         144.3819  138.0103  166.3873 O.2     1  UNL1       -0.2751
      9 N         142.3809  139.6674  166.3649 N.am    1  UNL1       -0.3004
     10 H         141.7536  140.2400  165.8670 H       1  UNL1        0.1497
     11 C         142.2916  139.5797  167.8597 C.3     1  UNL1        0.1163
     12 C         141.4452  140.5579  168.6191 C.ar    1  UNL1        0.0013
     13 C         140.2485  140.0777  169.3853 C.ar    1  UNL1       -0.0027
     14 C         139.4021  141.0559  170.1448 C.ar    1  UNL1       -0.0003
     15 C         139.7525  142.5144  170.1380 C.ar    1  UNL1       -0.0001
     16 C         140.9494  142.9946  169.3718 C.ar    1  UNL1        0.0036
     17 C         141.7957  142.0164  168.6124 C.ar    1  UNL1        0.0691
     18 C         142.9924  142.4966  167.8462 C.3     1  UNL1        0.4183
     19 F         144.1893  142.9769  167.0800 F       1  UNL1       -0.1659
     20 F         142.1311  142.7153  166.6378 F       1  UNL1       -0.1659
     21 F         143.8538  142.2780  169.0545 F       1  UNL1       -0.1659
     22 N         143.7837  139.2336  159.6497 N.pl3   1  UNL1       -0.3045
     23 H         144.5573  139.6725  159.2277 H       1  UNL1        0.1496
     24 C         140.2426  138.7000  157.9391 C.ar    1  UNL1        0.2217
     25 N         141.3320  139.2808  158.7909 N.ar    1  UNL1       -0.1810
     26 C         142.6942  138.6527  158.7978 C.ar    1  UNL1        0.2216
     27 N         142.9668  137.4437  157.9529 N.ar    1  UNL1       -0.1808
     28 C         141.8774  136.8628  157.1011 C.ar    1  UNL1        0.2249
     29 N         140.5153  137.4909  157.0942 N.ar    1  UNL1       -0.1808
     30 N         142.1500  135.6537  156.2562 N.pl3   1  UNL1       -0.2752
     31 C         141.5297  135.5341  154.8957 C.3     1  UNL1        0.1109
     32 C         141.8024  134.3250  154.0508 C.3     1  UNL1        0.0939
     33 N         142.6953  133.2356  154.5664 N.3     1  UNL1       -0.2686
     34 C         142.9680  132.0265  153.7215 C.3     1  UNL1        0.0897
     35 C         143.3156  133.3553  155.9269 C.3     1  UNL1        0.0939
     36 C         143.0430  134.5643  156.7718 C.3     1  UNL1        0.1109
     37 C         138.6617  140.6520  158.6025 C.3     1  UNL1        0.1108
     38 N         138.8805  139.3281  157.9321 N.pl3   1  UNL1       -0.3012
     39 H         138.1301  138.8715  157.4876 H       1  UNL1        0.1497
@<TRIPOS>BOND
     1    37    38    1
     2    38    24    1
     3    24    25   ar
     4    25    26   ar
     5    26    22    1
     6    22     1    1
     7     1     2    1
     8     2     3    1
     9     3     4    1
    10     4     7    1
    11     7     8    2
    12     7     9   am
    13     9    11    1
    14    11    12    1
    15    12    13   ar
    16    13    14   ar
    17    14    15   ar
    18    15    16   ar
    19    16    17   ar
    20    17    18    1
    21    18    19    1
    22    18    20    1
    23    18    21    1
    24     4     5    1
    25     5     6    1
    26    26    27   ar
    27    27    28   ar
    28    28    30    1
    29    30    31    1
    30    31    32    1
    31    32    33    1
    32    33    34    1
    33    33    35    1
    34    35    36    1
    35    28    29   ar
    36    29    24   ar
    37     6     1    1
    38    36    30    1
    39    17    12   ar
    40    38    39    1
    41    22    23    1
    42     9    10    1
@<TRIPOS>MOLECULE
*****
 39 42 0 0 0
SMALL
GASTEIGER

@<TRIPOS>ATOM
      1 C         137.8144  139.7360  161.3813 C.3     1  UNL1        0.0718
      2 C         138.3091  138.4388  161.9495 C.3     1  UNL1        0.0201
      3 C         138.5623  138.3133  163.4226 C.3     1  UNL1        0.0108
      4 C         138.3207  139.4850  164.3276 C.3     1  UNL1        0.0766
      5 C         137.8260  140.7820  163.7595 C.3     1  UNL1        0.0108
      6 C         137.5729  140.9076  162.2863 C.3     1  UNL1        0.0201
      7 C         138.5738  139.3595  165.8008 C.2     1  UNL1        0.2222
      8 O         137.8117  138.3521  166.6096 O.2     1  UNL1       -0.2751
      9 N         139.5892  140.2414  166.4651 N.am    1  UNL1       -0.3004
     10 H         140.0895  140.9026  165.9343 H       1  UNL1        0.1497
     11 C         139.8424  140.1159  167.9383 C.3     1  UNL1        0.1163
     12 C         140.7680  141.0760  168.6247 C.ar    1  UNL1        0.0013
     13 C         140.2228  142.3245  169.2524 C.ar    1  UNL1       -0.0027
     14 C         141.1485  143.2847  169.9388 C.ar    1  UNL1       -0.0003
     15 C         142.6194  142.9964  169.9976 C.ar    1  UNL1       -0.0001
     16 C         143.1645  141.7479  169.3698 C.ar    1  UNL1        0.0036
     17 C         142.2389  140.7877  168.6834 C.ar    1  UNL1        0.0691
     18 C         142.7841  139.5392  168.0557 C.3     1  UNL1        0.4183
     19 F         143.3293  138.2907  167.4280 F       1  UNL1       -0.1659
     20 F         142.9900  140.2774  166.7663 F       1  UNL1       -0.1659
     21 F         142.5782  138.8011  169.3451 F       1  UNL1       -0.1659
     22 N         137.5613  139.8615  159.9082 N.pl3   1  UNL1       -0.3045
     23 H         136.6997  139.5715  159.5303 H       1  UNL1        0.1496
     24 C         140.8772  140.1685  157.7494 C.ar    1  UNL1        0.2217
     25 N         139.8176  139.6011  158.6468 N.ar    1  UNL1       -0.1810
     26 C         138.6209  140.4290  159.0108 C.ar    1  UNL1        0.2216
     27 N         138.4838  141.8242  158.4774 N.ar    1  UNL1       -0.1808
     28 C         139.5434  142.3916  157.5801 C.ar    1  UNL1        0.2249
     29 N         140.7401  141.5637  157.2161 N.ar    1  UNL1       -0.1808
     30 N         139.4063  143.7869  157.0467 N.pl3   1  UNL1       -0.2752
     31 C         138.4992  144.0594  155.8836 C.3     1  UNL1        0.1109
     32 C         138.3621  145.4547  155.3502 C.3     1  UNL1        0.0939
     33 N         139.1321  146.5774  155.9800 N.3     1  UNL1       -0.2686
     34 C         138.9951  147.9727  155.4467 C.3     1  UNL1        0.0897
     35 C         140.0393  146.3048  157.1431 C.3     1  UNL1        0.0939
     36 C         140.1763  144.9096  157.6765 C.3     1  UNL1        0.1109
     37 C         142.6832  139.4627  156.0202 C.3     1  UNL1        0.1108
     38 N         142.0740  139.3407  157.3854 N.pl3   1  UNL1       -0.3012
     39 H         142.4596  138.7172  158.0426 H       1  UNL1        0.1497
@<TRIPOS>BOND
     1    37    38    1
     2    38    24    1
     3    24    25   ar
     4    25    26   ar
     5    26    22    1
     6    22     1    1
     7     1     2    1
     8     2     3    1
     9     3     4    1
    10     4     7    1
    11     7     8    2
    12     7     9   am
    13     9    11    1
    14    11    12    1
    15    12    13   ar
    16    13    14   ar
    17    14    15   ar
    18    15    16   ar
    19    16    17   ar
    20    17    18    1
    21    18    19    1
    22    18    20    1
    23    18    21    1
    24     4     5    1
    25     5     6    1
    26    26    27   ar
    27    27    28   ar
    28    28    30    1
    29    30    31    1
    30    31    32    1
    31    32    33    1
    32    33    34    1
    33    33    35    1
    34    35    36    1
    35    28    29   ar
    36    29    24   ar
    37     6     1    1
    38    36    30    1
    39    17    12   ar
    40    38    39    1
    41    22    23    1
    42     9    10    1
@<TRIPOS>MOLECULE
*****
 39 42 0 0 0
SMALL
GASTEIGER

@<TRIPOS>ATOM
      1 C         143.4977  138.8817  161.3049 C.3     1  UNL1        0.0718
      2 C         144.4645  139.6988  162.1098 C.3     1  UNL1        0.0201
      3 C         144.4029  139.6723  163.6083 C.3     1  UNL1        0.0108
      4 C         143.3746  138.8287  164.3019 C.3     1  UNL1        0.0766
      5 C         142.4078  138.0118  163.4970 C.3     1  UNL1        0.0108
      6 C         142.4694  138.0382  161.9985 C.3     1  UNL1        0.0201
      7 C         143.3130  138.8023  165.8004 C.2     1  UNL1        0.2222
      8 O         144.2863  137.9653  166.5763 O.2     1  UNL1       -0.2751
      9 N         142.2782  139.6129  166.5229 N.am    1  UNL1       -0.3004
     10 H         141.6394  140.1622  166.0137 H       1  UNL1        0.1497
     11 C         142.2166  139.5864  168.0215 C.3     1  UNL1        0.1163
     12 C         141.4054  140.6115  168.7570 C.ar    1  UNL1        0.0013
     13 C         140.2075  140.1886  169.5545 C.ar    1  UNL1       -0.0027
     14 C         139.3962  141.2137  170.2901 C.ar    1  UNL1       -0.0003
     15 C         139.7829  142.6617  170.2282 C.ar    1  UNL1       -0.0001
     16 C         140.9809  143.0845  169.4306 C.ar    1  UNL1        0.0036
     17 C         141.7921  142.0594  168.6950 C.ar    1  UNL1        0.0691
     18 C         142.9901  142.4823  167.8975 C.3     1  UNL1        0.4183
     19 F         144.1881  142.9052  167.1000 F       1  UNL1       -0.1659
     20 F         142.1159  142.6954  166.6974 F       1  UNL1       -0.1659
     21 F         143.8643  142.2692  169.0976 F       1  UNL1       -0.1659
     22 N         143.5592  138.9082  159.8064 N.pl3   1  UNL1       -0.3045
     23 H         143.4490  138.0746  159.2944 H       1  UNL1        0.1496
     24 C         143.3171  142.7464  158.8268 C.ar    1  UNL1        0.2217
     25 N         143.0877  141.4498  159.5451 N.ar    1  UNL1       -0.1810
     26 C         143.7886  140.2049  159.0879 C.ar    1  UNL1        0.2216
     27 N         144.7189  140.2566  157.9124 N.ar    1  UNL1       -0.1808
     28 C         144.9482  141.5533  157.1941 C.ar    1  UNL1        0.2249
     29 N         144.2473  142.7982  157.6513 N.ar    1  UNL1       -0.1808
     30 N         145.8785  141.6051  156.0185 N.pl3   1  UNL1       -0.2752
     31 C         145.4216  141.1106  154.6781 C.3     1  UNL1        0.1109
     32 C         146.3519  141.1624  153.5025 C.3     1  UNL1        0.0939
     33 N         147.7391  141.7087  153.6674 N.3     1  UNL1       -0.2686
     34 C         148.6693  141.7606  152.4919 C.3     1  UNL1        0.0897
     35 C         148.1960  142.2033  155.0078 C.3     1  UNL1        0.0939
     36 C         147.2657  142.1515  156.1833 C.3     1  UNL1        0.1109
     37 C         142.0440  144.0644  160.6686 C.3     1  UNL1        0.1108
     38 N         142.6162  143.9913  159.2840 N.pl3   1  UNL1       -0.3012
     39 H         142.5317  144.7604  158.6752 H       1  UNL1        0.1497
@<TRIPOS>BOND
     1    37    38    1
     2    38    24    1
     3    24    25   ar
     4    25    26   ar
     5    26    22    1
     6    22     1    1
     7     1     2    1
     8     2     3    1
     9     3     4    1
    10     4     7    1
    11     7     8    2
    12     7     9   am
    13     9    11    1
    14    11    12    1
    15    12    13   ar
    16    13    14   ar
    17    14    15   ar
    18    15    16   ar
    19    16    17   ar
    20    17    18    1
    21    18    19    1
    22    18    20    1
    23    18    21    1
    24     4     5    1
    25     5     6    1
    26    26    27   ar
    27    27    28   ar
    28    28    30    1
    29    30    31    1
    30    31    32    1
    31    32    33    1
    32    33    34    1
    33    33    35    1
    34    35    36    1
    35    28    29   ar
    36    29    24   ar
    37     6     1    1
    38    36    30    1
    39    17    12   ar
    40    38    39    1
    41    22    23    1
    42     9    10    1
@<TRIPOS>MOLECULE
*****
 39 42 0 0 0
SMALL
GASTEIGER

@<TRIPOS>ATOM
      1 C         142.9399  138.5386  159.8858 C.3     1  UNL1        0.0718
      2 C         144.0477  138.6326  160.8928 C.3     1  UNL1        0.0201
      3 C         143.7409  138.5274  162.3573 C.3     1  UNL1        0.0108
      4 C         142.3263  138.3282  162.8148 C.3     1  UNL1        0.0766
      5 C         141.2186  138.2342  161.8079 C.3     1  UNL1        0.0108
      6 C         141.5254  138.3394  160.3433 C.3     1  UNL1        0.0201
      7 C         142.0195  138.2230  164.2793 C.2     1  UNL1        0.2222
      8 O         141.2464  137.0483  164.8012 O.2     1  UNL1       -0.2751
      9 N         142.4859  139.2925  165.2221 N.am    1  UNL1       -0.3004
     10 H         142.9933  140.0635  164.8796 H       1  UNL1        0.1497
     11 C         142.1791  139.1873  166.6866 C.3     1  UNL1        0.1163
     12 C         141.9166  140.4272  167.4888 C.ar    1  UNL1        0.0013
     13 C         143.0474  141.1207  168.1891 C.ar    1  UNL1       -0.0027
     14 C         142.7850  142.3607  168.9915 C.ar    1  UNL1       -0.0003
     15 C         141.3918  142.9071  169.0935 C.ar    1  UNL1       -0.0001
     16 C         140.2610  142.2135  168.3931 C.ar    1  UNL1        0.0036
     17 C         140.5234  140.9736  167.5909 C.ar    1  UNL1        0.0691
     18 C         139.3927  140.2802  166.8906 C.3     1  UNL1        0.4183
     19 F         138.2619  139.5866  166.1903 F       1  UNL1       -0.1659
     20 F         139.6932  141.0526  165.6404 F       1  UNL1       -0.1659
     21 F         139.0922  139.5077  168.1408 F       1  UNL1       -0.1659
     22 N         143.2467  138.6439  158.4213 N.pl3   1  UNL1       -0.3045
     23 H         143.7789  139.3999  158.0829 H       1  UNL1        0.1496
     24 C         141.2911  136.9290  155.4238 C.ar    1  UNL1        0.2217
     25 N         141.7951  137.9756  156.3727 N.ar    1  UNL1       -0.1810
     26 C         142.7426  137.5972  157.4723 C.ar    1  UNL1        0.2216
     27 N         143.1861  136.1722  157.6230 N.ar    1  UNL1       -0.1808
     28 C         142.6820  135.1256  156.6740 C.ar    1  UNL1        0.2249
     29 N         141.7345  135.5040  155.5744 N.ar    1  UNL1       -0.1808
     30 N         143.1255  133.7005  156.8246 N.pl3   1  UNL1       -0.2752
     31 C         144.3302  133.3739  157.6563 C.3     1  UNL1        0.1109
     32 C         144.7737  131.9488  157.8069 C.3     1  UNL1        0.0939
     33 N         144.0123  130.8504  157.1258 N.3     1  UNL1       -0.2686
     34 C         144.4557  129.4254  157.2764 C.3     1  UNL1        0.0897
     35 C         142.8075  131.1772  156.2941 C.3     1  UNL1        0.0939
     36 C         142.3641  132.6022  156.1435 C.3     1  UNL1        0.1109
     37 C         140.4739  138.6395  153.6472 C.3     1  UNL1        0.1108
     38 N         140.3436  137.3074  154.3242 N.pl3   1  UNL1       -0.3012
     39 H         139.6361  136.6814  154.0469 H       1  UNL1        0.1497
@<TRIPOS>BOND
     1    37    38    1
     2    38    24    1
     3    24    25   ar
     4    25    26   ar
     5    26    22    1
     6    22     1    1
     7     1     2    1
     8     2     3    1
     9     3     4    1
    10     4     7    1
    11     7     8    2
    12     7     9   am
    13     9    11    1
    14    11    12    1
    15    12    13   ar
    16    13    14   ar
    17    14    15   ar
    18    15    16   ar
    19    16    17   ar
    20    17    18    1
    21    18    19    1
    22    18    20    1
    23    18    21    1
    24     4     5    1
    25     5     6    1
    26    26    27   ar
    27    27    28   ar
    28    28    30    1
    29    30    31    1
    30    31    32    1
    31    32    33    1
    32    33    34    1
    33    33    35    1
    34    35    36    1
    35    28    29   ar
    36    29    24   ar
    37     6     1    1
    38    36    30    1
    39    17    12   ar
    40    38    39    1
    41    22    23    1
    42     9    10    1
@<TRIPOS>MOLECULE
*****
 39 42 0 0 0
SMALL
GASTEIGER

@<TRIPOS>ATOM
      1 C         138.5963  138.6582  161.8042 C.3     1  UNL1        0.0718
      2 C         139.1973  137.6124  162.6959 C.3     1  UNL1        0.0201
      3 C         139.2143  137.8138  164.1822 C.3     1  UNL1        0.0108
      4 C         138.6303  139.0610  164.7768 C.3     1  UNL1        0.0766
      5 C         138.0294  140.1067  163.8851 C.3     1  UNL1        0.0108
      6 C         138.0124  139.9054  162.3988 C.3     1  UNL1        0.0201
      7 C         138.6473  139.2623  166.2632 C.2     1  UNL1        0.2222
      8 O         137.5707  138.6573  167.1144 O.2     1  UNL1       -0.2751
      9 N         139.7411  140.0688  166.8983 N.am    1  UNL1       -0.3004
     10 H         140.4478  140.4660  166.3396 H       1  UNL1        0.1497
     11 C         139.7581  140.2702  168.3846 C.3     1  UNL1        0.1163
     12 C         140.7228  141.2407  168.9990 C.ar    1  UNL1        0.0013
     13 C         140.2351  142.5681  169.4989 C.ar    1  UNL1       -0.0027
     14 C         141.1998  143.5387  170.1133 C.ar    1  UNL1       -0.0003
     15 C         142.6522  143.1817  170.2278 C.ar    1  UNL1       -0.0001
     16 C         143.1399  141.8542  169.7278 C.ar    1  UNL1        0.0036
     17 C         142.1752  140.8837  169.1134 C.ar    1  UNL1        0.0691
     18 C         142.6629  139.5563  168.6135 C.3     1  UNL1        0.4183
     19 F         143.1507  138.2288  168.1136 F       1  UNL1       -0.1659
     20 F         142.9685  140.1709  167.2798 F       1  UNL1       -0.1659
     21 F         142.3574  138.9417  169.9472 F       1  UNL1       -0.1659
     22 N         138.5793  138.4569  160.3179 N.pl3   1  UNL1       -0.3045
     23 H         138.3477  137.5765  159.9430 H       1  UNL1        0.1496
     24 C         138.1528  141.5454  157.8625 C.ar    1  UNL1        0.2217
     25 N         137.8170  140.4054  158.7776 N.ar    1  UNL1       -0.1810
     26 C         138.9151  139.5970  159.4027 C.ar    1  UNL1        0.2216
     27 N         140.3489  139.9285  159.1125 N.ar    1  UNL1       -0.1808
     28 C         140.6846  141.0686  158.1974 C.ar    1  UNL1        0.2249
     29 N         139.5866  141.8770  157.5724 N.ar    1  UNL1       -0.1808
     30 N         142.1185  141.4002  157.9072 N.pl3   1  UNL1       -0.2752
     31 C         142.8833  142.2974  158.8346 C.3     1  UNL1        0.1109
     32 C         144.3171  142.6291  158.5444 C.3     1  UNL1        0.0939
     33 N         144.9862  142.0634  157.3269 N.3     1  UNL1       -0.2686
     34 C         146.4199  142.3950  157.0367 C.3     1  UNL1        0.0897
     35 C         144.2213  141.1661  156.3995 C.3     1  UNL1        0.0939
     36 C         142.7875  140.8346  156.6897 C.3     1  UNL1        0.1109
     37 C         137.3021  143.0888  155.9535 C.3     1  UNL1        0.1108
     38 N         137.0547  142.3539  157.2374 N.pl3   1  UNL1       -0.3012
     39 H         136.1716  142.4021  157.6699 H       1  UNL1        0.1497
@<TRIPOS>BOND
     1    37    38    1
     2    38    24    1
     3    24    25   ar
     4    25    26   ar
     5    26    22    1
     6    22     1    1
     7     1     2    1
     8     2     3    1
     9     3     4    1
    10     4     7    1
    11     7     8    2
    12     7     9   am
    13     9    11    1
    14    11    12    1
    15    12    13   ar
    16    13    14   ar
    17    14    15   ar
    18    15    16   ar
    19    16    17   ar
    20    17    18    1
    21    18    19    1
    22    18    20    1
    23    18    21    1
    24     4     5    1
    25     5     6    1
    26    26    27   ar
    27    27    28   ar
    28    28    30    1
    29    30    31    1
    30    31    32    1
    31    32    33    1
    32    33    34    1
    33    33    35    1
    34    35    36    1
    35    28    29   ar
    36    29    24   ar
    37     6     1    1
    38    36    30    1
    39    17    12   ar
    40    38    39    1
    41    22    23    1
    42     9    10    1
@<TRIPOS>MOLECULE
*****
 39 42 0 0 0
SMALL
GASTEIGER

@<TRIPOS>ATOM
      1 C         138.1395  141.0732  157.9260 C.3     1  UNL1        0.0718
      2 C         138.0321  140.5524  159.3287 C.3     1  UNL1        0.0201
      3 C         138.5014  141.3932  160.4788 C.3     1  UNL1        0.0108
      4 C         139.0781  142.7548  160.2263 C.3     1  UNL1        0.0766
      5 C         139.1854  143.2755  158.8237 C.3     1  UNL1        0.0108
      6 C         138.7161  142.4347  157.6736 C.3     1  UNL1        0.0201
      7 C         139.5474  143.5956  161.3764 C.2     1  UNL1        0.2222
      8 O         138.8028  144.8442  161.7456 O.2     1  UNL1       -0.2751
      9 N         140.7614  143.1876  162.1575 N.am    1  UNL1       -0.3004
     10 H         141.2501  142.3680  161.9152 H       1  UNL1        0.1497
     11 C         141.2307  144.0284  163.3076 C.3     1  UNL1        0.1163
     12 C         141.3708  143.4216  164.6722 C.ar    1  UNL1        0.0013
     13 C         142.7075  142.9260  165.1389 C.ar    1  UNL1       -0.0027
     14 C         142.8477  142.3191  166.5035 C.ar    1  UNL1       -0.0003
     15 C         141.6513  142.2079  167.4013 C.ar    1  UNL1       -0.0001
     16 C         140.3146  142.7035  166.9346 C.ar    1  UNL1        0.0036
     17 C         140.1744  143.3103  165.5700 C.ar    1  UNL1        0.0691
     18 C         138.8378  143.8059  165.1033 C.3     1  UNL1        0.4183
     19 F         137.5011  144.3014  164.6366 F       1  UNL1       -0.1659
     20 F         139.1469  145.1639  165.6601 F       1  UNL1       -0.1659
     21 F         138.5287  142.4478  164.5466 F       1  UNL1       -0.1659
     22 N         137.6702  140.2324  156.7759 N.pl3   1  UNL1       -0.3045
     23 H         138.1824  139.4356  156.5074 H       1  UNL1        0.1496
     24 C         135.2615  141.7584  154.0155 C.ar    1  UNL1        0.2217
     25 N         136.5111  141.3852  154.7565 N.ar    1  UNL1       -0.1810
     26 C         136.4205  140.6056  156.0348 C.ar    1  UNL1        0.2216
     27 N         135.0803  140.1993  156.5721 N.ar    1  UNL1       -0.1808
     28 C         133.8307  140.5725  155.8311 C.ar    1  UNL1        0.2249
     29 N         133.9213  141.3520  154.5528 N.ar    1  UNL1       -0.1808
     30 N         132.4904  140.1661  156.3683 N.pl3   1  UNL1       -0.2752
     31 C         131.2456  140.8307  155.8597 C.3     1  UNL1        0.1109
     32 C         129.9053  140.4244  156.3969 C.3     1  UNL1        0.0939
     33 N         129.8099  139.3534  157.4429 N.3     1  UNL1       -0.2686
     34 C         128.4697  138.9471  157.9802 C.3     1  UNL1        0.0897
     35 C         131.0548  138.6888  157.9516 C.3     1  UNL1        0.0939
     36 C         132.3950  139.0952  157.4143 C.3     1  UNL1        0.1109
     37 C         136.6199  143.2588  152.3865 C.3     1  UNL1        0.1108
     38 N         135.3521  142.5379  152.7372 N.pl3   1  UNL1       -0.3012
     39 H         134.5794  142.5764  152.1283 H       1  UNL1        0.1497
@<TRIPOS>BOND
     1    37    38    1
     2    38    24    1
     3    24    25   ar
     4    25    26   ar
     5    26    22    1
     6    22     1    1
     7     1     2    1
     8     2     3    1
     9     3     4    1
    10     4     7    1
    11     7     8    2
    12     7     9   am
    13     9    11    1
    14    11    12    1
    15    12    13   ar
    16    13    14   ar
    17    14    15   ar
    18    15    16   ar
    19    16    17   ar
    20    17    18    1
    21    18    19    1
    22    18    20    1
    23    18    21    1
    24     4     5    1
    25     5     6    1
    26    26    27   ar
    27    27    28   ar
    28    28    30    1
    29    30    31    1
    30    31    32    1
    31    32    33    1
    32    33    34    1
    33    33    35    1
    34    35    36    1
    35    28    29   ar
    36    29    24   ar
    37     6     1    1
    38    36    30    1
    39    17    12   ar
    40    38    39    1
    41    22    23    1
    42     9    10    1
