@<TRIPOS>MOLECULE
*****
 20 20 0 0 0
SMALL
GASTEIGER

@<TRIPOS>ATOM
      1 N         142.0545  141.8849  168.7030 N.3     1  UNL1       -0.2690
      2 C         141.7948  143.1549  169.4577 C.3     1  UNL1        0.0724
      3 C         140.3886  143.5518  169.7966 C.3     1  UNL1        0.0188
      4 C         142.6757  141.9368  167.3386 C.3     1  UNL1        0.0724
      5 C         141.8392  142.2977  166.1470 C.3     1  UNL1        0.0173
      6 C         142.2400  141.8292  164.7796 C.3     1  UNL1        0.0014
      7 C         141.7279  140.5204  164.2553 C.3     1  UNL1        0.0000
      8 C         142.5802  139.2896  164.3494 C.3     1  UNL1        0.0000
      9 C         143.6723  138.2754  166.4776 C.3     1  UNL1        0.0000
     10 C         142.4931  138.4079  165.5598 C.3     1  UNL1        0.0000
     11 C         141.6931  140.5629  169.3127 C.3     1  UNL1        0.0986
     12 C         140.7470  139.6421  168.6004 C.2     1  UNL1       -0.0130
     13 C         139.4476  140.1682  168.0668 C.2     1  UNL1       -0.0246
     14 C         138.5016  139.2475  167.3546 C.3     1  UNL1        0.0520
     15 C         138.5261  139.1585  165.8575 C.ar    1  UNL1       -0.0178
     16 C         138.1333  140.3456  165.0290 C.ar    1  UNL1       -0.0039
     17 C         138.1579  140.2566  163.5319 C.ar    1  UNL1       -0.0003
     18 C         138.5752  138.9805  162.8631 C.ar    1  UNL1       -0.0000
     19 C         138.9680  137.7934  163.6916 C.ar    1  UNL1       -0.0003
     20 C         138.9435  137.8824  165.1887 C.ar    1  UNL1       -0.0039
@<TRIPOS>BOND
     1     9    10    1
     2    10     8    1
     3     8     7    1
     4     7     6    1
     5     6     5    1
     6     5     4    1
     7     4     1    1
     8     1     2    1
     9     2     3    1
    10     1    11    1
    11    11    12    1
    12    12    13    2
    13    13    14    1
    14    14    15    1
    15    15    16   ar
    16    16    17   ar
    17    17    18   ar
    18    18    19   ar
    19    19    20   ar
    20    20    15   ar
@<TRIPOS>MOLECULE
*****
 20 20 0 0 0
SMALL
GASTEIGER

@<TRIPOS>ATOM
      1 N         138.0062  143.1007  162.9809 N.3     1  UNL1       -0.2690
      2 C         138.9036  143.4926  161.8446 C.3     1  UNL1        0.0724
      3 C         140.2092  142.7829  161.6408 C.3     1  UNL1        0.0188
      4 C         137.7887  144.0458  164.1252 C.3     1  UNL1        0.0724
      5 C         138.9545  144.5076  164.9485 C.3     1  UNL1        0.0173
      6 C         139.7224  143.5231  165.7798 C.3     1  UNL1        0.0014
      7 C         140.8955  142.7977  165.1903 C.3     1  UNL1        0.0000
      8 C         142.1864  142.7171  165.9499 C.3     1  UNL1        0.0000
      9 C         144.5966  143.4913  165.3653 C.3     1  UNL1        0.0000
     10 C         143.4769  142.5045  165.2154 C.3     1  UNL1        0.0000
     11 C         137.3264  141.7636  162.9729 C.3     1  UNL1        0.0986
     12 C         138.0179  140.5671  163.5563 C.2     1  UNL1       -0.0130
     13 C         138.0944  140.3969  165.0447 C.2     1  UNL1       -0.0246
     14 C         138.7859  139.2005  165.6281 C.3     1  UNL1        0.0520
     15 C         140.0551  139.3742  166.4083 C.ar    1  UNL1       -0.0178
     16 C         141.3625  138.9305  165.8221 C.ar    1  UNL1       -0.0039
     17 C         142.6318  139.1042  166.6023 C.ar    1  UNL1       -0.0003
     18 C         142.5937  139.7217  167.9688 C.ar    1  UNL1       -0.0000
     19 C         141.2863  140.1654  168.5550 C.ar    1  UNL1       -0.0003
     20 C         140.0170  139.9917  167.7748 C.ar    1  UNL1       -0.0039
@<TRIPOS>BOND
     1     9    10    1
     2    10     8    1
     3     8     7    1
     4     7     6    1
     5     6     5    1
     6     5     4    1
     7     4     1    1
     8     1     2    1
     9     2     3    1
    10     1    11    1
    11    11    12    1
    12    12    13    2
    13    13    14    1
    14    14    15    1
    15    15    16   ar
    16    16    17   ar
    17    17    18   ar
    18    18    19   ar
    19    19    20   ar
    20    20    15   ar
@<TRIPOS>MOLECULE
*****
 20 20 0 0 0
SMALL
GASTEIGER

@<TRIPOS>ATOM
      1 N         139.3097  137.7612  163.5349 N.3     1  UNL1       -0.2690
      2 C         138.3615  138.0220  162.4023 C.3     1  UNL1        0.0724
      3 C         138.1398  139.4241  161.9175 C.3     1  UNL1        0.0188
      4 C         138.8376  137.8895  164.9530 C.3     1  UNL1        0.0724
      5 C         138.5695  139.2460  165.5344 C.3     1  UNL1        0.0173
      6 C         139.5418  139.8528  166.5020 C.3     1  UNL1        0.0014
      7 C         139.2438  139.8403  167.9720 C.3     1  UNL1        0.0000
      8 C         140.2926  140.2719  168.9536 C.3     1  UNL1        0.0000
      9 C         142.8487  140.6460  169.2305 C.3     1  UNL1        0.0000
     10 C         141.7010  139.7749  168.8133 C.3     1  UNL1        0.0000
     11 C         140.7300  137.3722  163.2496 C.3     1  UNL1        0.0986
     12 C         141.8579  138.1527  163.8568 C.2     1  UNL1       -0.0130
     13 C         142.3660  137.7973  165.2227 C.2     1  UNL1       -0.0246
     14 C         143.4938  138.5778  165.8299 C.3     1  UNL1        0.0520
     15 C         143.9107  139.8863  165.2264 C.ar    1  UNL1       -0.0178
     16 C         143.1810  141.1457  165.5889 C.ar    1  UNL1       -0.0039
     17 C         143.5978  142.4541  164.9854 C.ar    1  UNL1       -0.0003
     18 C         144.7444  142.5032  164.0196 C.ar    1  UNL1       -0.0000
     19 C         145.4741  141.2438  163.6572 C.ar    1  UNL1       -0.0003
     20 C         145.0572  139.9353  164.2606 C.ar    1  UNL1       -0.0039
@<TRIPOS>BOND
     1     9    10    1
     2    10     8    1
     3     8     7    1
     4     7     6    1
     5     6     5    1
     6     5     4    1
     7     4     1    1
     8     1     2    1
     9     2     3    1
    10     1    11    1
    11    11    12    1
    12    12    13    2
    13    13    14    1
    14    14    15    1
    15    15    16   ar
    16    16    17   ar
    17    17    18   ar
    18    18    19   ar
    19    19    20   ar
    20    20    15   ar
@<TRIPOS>MOLECULE
*****
 20 20 0 0 0
SMALL
GASTEIGER

@<TRIPOS>ATOM
      1 N         143.5920  138.7824  164.2346 N.3     1  UNL1       -0.2690
      2 C         142.8709  138.3483  162.9930 C.3     1  UNL1        0.0724
      3 C         141.5953  137.5666  163.1011 C.3     1  UNL1        0.0188
      4 C         144.8999  139.5092  164.1270 C.3     1  UNL1        0.0724
      5 C         145.0015  140.7505  163.2910 C.3     1  UNL1        0.0173
      6 C         145.4822  142.0315  163.9057 C.3     1  UNL1        0.0014
      7 C         144.6030  142.7802  164.8630 C.3     1  UNL1        0.0000
      8 C         143.1121  142.7338  164.7052 C.3     1  UNL1        0.0000
      9 C         141.5573  142.4558  162.6423 C.3     1  UNL1        0.0000
     10 C         142.4698  143.3056  163.4761 C.3     1  UNL1        0.0000
     11 C         143.0054  138.4897  165.5837 C.3     1  UNL1        0.0986
     12 C         142.2216  139.5454  166.3058 C.2     1  UNL1       -0.0130
     13 C         140.9283  140.0434  165.7318 C.2     1  UNL1       -0.0246
     14 C         140.1445  141.0990  166.4538 C.3     1  UNL1        0.0520
     15 C         139.4168  142.1558  165.6768 C.ar    1  UNL1       -0.0178
     16 C         139.6861  143.6060  165.9492 C.ar    1  UNL1       -0.0039
     17 C         138.9584  144.6628  165.1723 C.ar    1  UNL1       -0.0003
     18 C         137.9614  144.2694  164.1230 C.ar    1  UNL1       -0.0000
     19 C         137.6921  142.8192  163.8506 C.ar    1  UNL1       -0.0003
     20 C         138.4198  141.7624  164.6275 C.ar    1  UNL1       -0.0039
@<TRIPOS>BOND
     1     9    10    1
     2    10     8    1
     3     8     7    1
     4     7     6    1
     5     6     5    1
     6     5     4    1
     7     4     1    1
     8     1     2    1
     9     2     3    1
    10     1    11    1
    11    11    12    1
    12    12    13    2
    13    13    14    1
    14    14    15    1
    15    15    16   ar
    16    16    17   ar
    17    17    18   ar
    18    18    19   ar
    19    19    20   ar
    20    20    15   ar
@<TRIPOS>MOLECULE
*****
 20 20 0 0 0
SMALL
GASTEIGER

@<TRIPOS>ATOM
      1 N         138.5809  138.9552  165.1411 N.3     1  UNL1       -0.2690
      2 C         138.0622  138.9018  166.5475 C.3     1  UNL1        0.0724
      3 C         137.3880  137.6603  167.0516 C.3     1  UNL1        0.0188
      4 C         138.2564  140.1295  164.2660 C.3     1  UNL1        0.0724
      5 C         138.3752  141.5235  164.8070 C.3     1  UNL1        0.0173
      6 C         139.6489  141.9673  165.4631 C.3     1  UNL1        0.0014
      7 C         139.8555  143.4149  165.7977 C.3     1  UNL1        0.0000
      8 C         139.2545  144.4788  164.9277 C.3     1  UNL1        0.0000
      9 C         141.5035  145.0462  163.7571 C.3     1  UNL1        0.0000
     10 C         140.0051  144.9809  163.7300 C.3     1  UNL1        0.0000
     11 C         139.4243  137.8343  164.6097 C.3     1  UNL1        0.0986
     12 C         140.8814  138.0583  164.3326 C.2     1  UNL1       -0.0130
     13 C         141.8153  138.3960  165.4569 C.2     1  UNL1       -0.0246
     14 C         143.2724  138.6199  165.1799 C.3     1  UNL1        0.0520
     15 C         143.7940  140.0133  164.9889 C.ar    1  UNL1       -0.0178
     16 C         143.1526  141.1600  165.7125 C.ar    1  UNL1       -0.0039
     17 C         143.6742  142.5534  165.5215 C.ar    1  UNL1       -0.0003
     18 C         144.8372  142.8000  164.6069 C.ar    1  UNL1       -0.0000
     19 C         145.4786  141.6533  163.8833 C.ar    1  UNL1       -0.0003
     20 C         144.9570  140.2600  164.0743 C.ar    1  UNL1       -0.0039
@<TRIPOS>BOND
     1     9    10    1
     2    10     8    1
     3     8     7    1
     4     7     6    1
     5     6     5    1
     6     5     4    1
     7     4     1    1
     8     1     2    1
     9     2     3    1
    10     1    11    1
    11    11    12    1
    12    12    13    2
    13    13    14    1
    14    14    15    1
    15    15    16   ar
    16    16    17   ar
    17    17    18   ar
    18    18    19   ar
    19    19    20   ar
    20    20    15   ar
@<TRIPOS>MOLECULE
*****
 20 20 0 0 0
SMALL
GASTEIGER

@<TRIPOS>ATOM
      1 N         142.1465  139.4020  163.4913 N.3     1  UNL1       -0.2690
      2 C         140.9712  138.4983  163.2638 C.3     1  UNL1        0.0724
      3 C         140.9587  137.1205  163.8567 C.3     1  UNL1        0.0188
      4 C         142.1141  140.8153  162.9896 C.3     1  UNL1        0.0724
      5 C         141.1768  141.8095  163.6086 C.3     1  UNL1        0.0173
      6 C         141.1267  141.9656  165.0996 C.3     1  UNL1        0.0014
      7 C         139.8099  141.9100  165.8157 C.3     1  UNL1        0.0000
      8 C         138.5958  141.3792  165.1128 C.3     1  UNL1        0.0000
      9 C         138.5871  139.1492  166.4460 C.3     1  UNL1        0.0000
     10 C         138.2537  139.9215  165.2040 C.3     1  UNL1        0.0000
     11 C         143.3543  138.8925  164.2204 C.3     1  UNL1        0.0986
     12 C         143.5625  139.2436  165.6638 C.2     1  UNL1       -0.0130
     13 C         142.4360  139.0921  166.6426 C.2     1  UNL1       -0.0246
     14 C         142.6441  139.4432  168.0859 C.3     1  UNL1        0.0520
     15 C         141.7660  140.4664  168.7431 C.ar    1  UNL1       -0.0178
     16 C         140.4501  140.0564  169.3350 C.ar    1  UNL1       -0.0039
     17 C         139.5720  141.0797  169.9921 C.ar    1  UNL1       -0.0003
     18 C         140.0097  142.5129  170.0574 C.ar    1  UNL1       -0.0000
     19 C         141.3256  142.9228  169.4655 C.ar    1  UNL1       -0.0003
     20 C         142.2037  141.8996  168.8083 C.ar    1  UNL1       -0.0039
@<TRIPOS>BOND
     1     9    10    1
     2    10     8    1
     3     8     7    1
     4     7     6    1
     5     6     5    1
     6     5     4    1
     7     4     1    1
     8     1     2    1
     9     2     3    1
    10     1    11    1
    11    11    12    1
    12    12    13    2
    13    13    14    1
    14    14    15    1
    15    15    16   ar
    16    16    17   ar
    17    17    18   ar
    18    18    19   ar
    19    19    20   ar
    20    20    15   ar
@<TRIPOS>MOLECULE
*****
 20 20 0 0 0
SMALL
GASTEIGER

@<TRIPOS>ATOM
      1 N         138.8285  144.6866  163.4595 N.3     1  UNL1       -0.2690
      2 C         139.6614  145.4819  162.4985 C.3     1  UNL1        0.0724
      3 C         140.8611  144.8568  161.8504 C.3     1  UNL1        0.0188
      4 C         139.1357  144.7238  164.9273 C.3     1  UNL1        0.0724
      5 C         139.7412  143.5262  165.5974 C.3     1  UNL1        0.0173
      6 C         141.0265  142.9488  165.0831 C.3     1  UNL1        0.0014
      7 C         141.0138  141.6695  164.3001 C.3     1  UNL1        0.0000
      8 C         142.2101  140.7649  164.3219 C.3     1  UNL1        0.0000
      9 C         142.4225  139.7112  166.6872 C.3     1  UNL1        0.0000
     10 C         142.9817  140.5724  165.5937 C.3     1  UNL1        0.0000
     11 C         137.6883  143.8539  162.9529 C.3     1  UNL1        0.0986
     12 C         137.9572  142.5249  162.3113 C.2     1  UNL1       -0.0130
     13 C         137.5757  141.2591  163.0201 C.2     1  UNL1       -0.0246
     14 C         137.8446  139.9302  162.3786 C.3     1  UNL1        0.0520
     15 C         138.8898  139.0190  162.9507 C.ar    1  UNL1       -0.0178
     16 C         140.0113  138.5270  162.0845 C.ar    1  UNL1       -0.0039
     17 C         141.0565  137.6158  162.6566 C.ar    1  UNL1       -0.0003
     18 C         140.9803  137.1966  164.0948 C.ar    1  UNL1       -0.0000
     19 C         139.8588  137.6886  164.9609 C.ar    1  UNL1       -0.0003
     20 C         138.8136  138.5998  164.3888 C.ar    1  UNL1       -0.0039
@<TRIPOS>BOND
     1     9    10    1
     2    10     8    1
     3     8     7    1
     4     7     6    1
     5     6     5    1
     6     5     4    1
     7     4     1    1
     8     1     2    1
     9     2     3    1
    10     1    11    1
    11    11    12    1
    12    12    13    2
    13    13    14    1
    14    14    15    1
    15    15    16   ar
    16    16    17   ar
    17    17    18   ar
    18    18    19   ar
    19    19    20   ar
    20    20    15   ar
@<TRIPOS>MOLECULE
*****
 20 20 0 0 0
SMALL
GASTEIGER

@<TRIPOS>ATOM
      1 N         140.3763  144.8932  163.6416 N.3     1  UNL1       -0.2690
      2 C         140.3911  145.8034  162.4495 C.3     1  UNL1        0.0724
      3 C         140.1232  145.2511  161.0808 C.3     1  UNL1        0.0188
      4 C         141.5983  144.0971  163.9927 C.3     1  UNL1        0.0724
      5 C         141.9539  142.8778  163.1946 C.3     1  UNL1        0.0173
      6 C         141.6260  141.5132  163.7239 C.3     1  UNL1        0.0014
      7 C         141.3834  141.3161  165.1910 C.3     1  UNL1        0.0000
      8 C         142.4962  140.8423  166.0782 C.3     1  UNL1        0.0000
      9 C         142.9672  138.3134  165.7136 C.3     1  UNL1        0.0000
     10 C         142.4966  139.4335  166.5934 C.3     1  UNL1        0.0000
     11 C         139.1396  144.7790  164.4828 C.3     1  UNL1        0.0986
     12 C         138.3815  143.4855  164.5299 C.2     1  UNL1       -0.0130
     13 C         138.1741  142.6916  163.2743 C.2     1  UNL1       -0.0246
     14 C         137.4160  141.3981  163.3213 C.3     1  UNL1        0.0520
     15 C         138.0708  140.1645  163.8684 C.ar    1  UNL1       -0.0178
     16 C         138.0864  139.9168  165.3477 C.ar    1  UNL1       -0.0039
     17 C         138.7412  138.6832  165.8948 C.ar    1  UNL1       -0.0003
     18 C         139.3804  137.6971  164.9626 C.ar    1  UNL1       -0.0000
     19 C         139.3648  137.9448  163.4833 C.ar    1  UNL1       -0.0003
     20 C         138.7100  139.1784  162.9362 C.ar    1  UNL1       -0.0039
@<TRIPOS>BOND
     1     9    10    1
     2    10     8    1
     3     8     7    1
     4     7     6    1
     5     6     5    1
     6     5     4    1
     7     4     1    1
     8     1     2    1
     9     2     3    1
    10     1    11    1
    11    11    12    1
    12    12    13    2
    13    13    14    1
    14    14    15    1
    15    15    16   ar
    16    16    17   ar
    17    17    18   ar
    18    18    19   ar
    19    19    20   ar
    20    20    15   ar
@<TRIPOS>MOLECULE
*****
 20 20 0 0 0
SMALL
GASTEIGER

@<TRIPOS>ATOM
      1 N         143.1747  140.1571  163.5289 N.3     1  UNL1       -0.2690
      2 C         144.4164  140.8132  163.0020 C.3     1  UNL1        0.0724
      3 C         145.5240  141.1864  163.9420 C.3     1  UNL1        0.0188
      4 C         141.8511  140.8531  163.4117 C.3     1  UNL1        0.0724
      5 C         141.5547  142.0497  164.2664 C.3     1  UNL1        0.0173
      6 C         140.5791  141.9383  165.4003 C.3     1  UNL1        0.0014
      7 C         140.0943  143.1751  166.0969 C.3     1  UNL1        0.0000
      8 C         139.2148  144.1491  165.3704 C.3     1  UNL1        0.0000
      9 C         137.8032  144.1674  163.1893 C.3     1  UNL1        0.0000
     10 C         138.0412  143.6536  164.5784 C.3     1  UNL1        0.0000
     11 C         143.2564  138.8049  164.1730 C.3     1  UNL1        0.0986
     12 C         142.7412  138.6060  165.5677 C.2     1  UNL1       -0.0130
     13 C         143.0992  139.5852  166.6461 C.2     1  UNL1       -0.0246
     14 C         142.5840  139.3865  168.0407 C.3     1  UNL1        0.0520
     15 C         141.7507  140.4506  168.6912 C.ar    1  UNL1       -0.0178
     16 C         142.3066  141.8318  168.8735 C.ar    1  UNL1       -0.0039
     17 C         141.4733  142.8959  169.5239 C.ar    1  UNL1       -0.0003
     18 C         140.0840  142.5789  169.9922 C.ar    1  UNL1       -0.0000
     19 C         139.5280  141.1977  169.8099 C.ar    1  UNL1       -0.0003
     20 C         140.3614  140.1336  169.1594 C.ar    1  UNL1       -0.0039
@<TRIPOS>BOND
     1     9    10    1
     2    10     8    1
     3     8     7    1
     4     7     6    1
     5     6     5    1
     6     5     4    1
     7     4     1    1
     8     1     2    1
     9     2     3    1
    10     1    11    1
    11    11    12    1
    12    12    13    2
    13    13    14    1
    14    14    15    1
    15    15    16   ar
    16    16    17   ar
    17    17    18   ar
    18    18    19   ar
    19    19    20   ar
    20    20    15   ar
