@<TRIPOS>MOLECULE
*****
 39 42 0 0 0
SMALL
GASTEIGER

@<TRIPOS>ATOM
      1 N         140.1245  139.0254  162.9757 N.am    1  UNL1       -0.2531
      2 C         140.3273  140.2012  162.0666 C.2     1  UNL1        0.3135
      3 O         140.2290  141.5956  162.6106 O.2     1  UNL1       -0.2518
      4 N         140.6284  139.9825  160.6134 N.am    1  UNL1       -0.2282
      5 C         140.7268  138.5881  160.0695 C.3     1  UNL1        0.1015
      6 C         141.0279  138.3695  158.6164 C.3     1  UNL1        0.0268
      7 C         141.2307  139.5453  157.7073 C.3     1  UNL1        0.0310
      8 C         141.1324  140.9397  158.2513 C.ar    1  UNL1        0.0096
      9 C         141.3352  142.1154  157.3422 C.ar    1  UNL1       -0.0028
     10 C         141.2369  143.5098  157.8862 C.ar    1  UNL1        0.0146
     11 CA        140.9357  143.7285  159.3393 C.ar    1  UNL1        0.1221
     12 N         140.7329  142.5527  160.2484 N.ar    1  UNL1       -0.2275
     13 C         140.8313  141.1583  159.7044 C.ar    1  UNL1        0.1345
     14 H         140.1890  138.1102  162.6186 H       1  UNL1        0.1578
     15 C         140.5972  139.9556  166.8047 C.ar    1  UNL1        0.1525
     16 C         140.8983  139.7370  165.3516 C.ar    1  UNL1        0.0721
     17 C         139.8233  139.2440  164.4288 C.ar    1  UNL1        0.1384
     18 N         138.4473  138.9697  164.9591 N.ar    1  UNL1       -0.2281
     19 C         138.1462  139.1884  166.4122 C.ar    1  UNL1        0.1136
     20 C         139.2211  139.6813  167.3350 C.ar    1  UNL1        0.1215
     21 C         138.9200  139.8999  168.7881 C.1     1  UNL1        0.1051
     22 N         138.6188  140.1185  170.2412 N.1     1  UNL1       -0.1907
     23 O         141.6721  140.4485  167.7274 O.3     1  UNL1       -0.4719
     24 C         142.5718  139.4694  168.4216 C.3     1  UNL1        0.2373
     25 C         142.3877  139.1876  169.8834 C.3     1  UNL1        0.1894
     26 C         141.8229  141.3584  171.1944 C.3     1  UNL1        0.1743
     27 O         142.7609  140.2255  170.9000 O.3     1  UNL1       -0.3471
     28 C         140.8374  145.1229  159.8833 C.2     1  UNL1        0.2529
     29 O         139.5621  145.5919  160.5187 O.2     1  UNL1       -0.2815
     30 C         141.4397  144.6856  156.9771 C.3     1  UNL1        0.1008
     31 N         140.2656  145.3047  156.2785 N.3     1  UNL1       -0.2666
     32 C         140.1635  146.7967  156.1622 C.3     1  UNL1        0.0882
     33 C         138.9894  147.4159  155.4635 C.3     1  UNL1        0.0702
     34 C         138.8873  148.9079  155.3472 C.3     1  UNL1        0.0186
     35 N         137.9174  146.5431  154.8811 N.3     1  UNL1       -0.2974
     36 C         138.0196  145.0511  154.9975 C.3     1  UNL1        0.0702
     37 C         136.9477  144.1783  154.4151 C.3     1  UNL1        0.0186
     38 C         139.1937  144.4319  155.6961 C.3     1  UNL1        0.0882
     39 H         137.8712  146.7584  153.8852 H       1  UNL1        0.1232
@<TRIPOS>BOND
     1    26    27    1
     2    27    25    1
     3    25    24    1
     4    24    23    1
     5    23    15    1
     6    15    16   ar
     7    16    17   ar
     8    17     1    1
     9     1     2   am
    10     2     3    2
    11     2     4   am
    12     4     5    1
    13     5     6    1
    14     6     7    1
    15     7     8    1
    16     8     9   ar
    17     9    10   ar
    18    10    30    1
    19    30    31    1
    20    31    32    1
    21    32    33    1
    22    33    34    1
    23    33    35    1
    24    35    36    1
    25    36    37    1
    26    36    38    1
    27    10    11   ar
    28    11    28    1
    29    28    29    2
    30    11    12   ar
    31    12    13   ar
    32    17    18   ar
    33    18    19   ar
    34    19    20   ar
    35    20    21    1
    36    21    22    3
    37    20    15   ar
    38    13     4    1
    39    13     8   ar
    40    38    31    1
    41     1    14    1
    42    35    39    1
@<TRIPOS>MOLECULE
*****
 39 42 0 0 0
SMALL
GASTEIGER

@<TRIPOS>ATOM
      1 N         139.1027  143.4776  158.6432 N.am    1  UNL1       -0.2531
      2 C         139.0547  142.7354  159.9459 C.2     1  UNL1        0.3135
      3 O         138.6568  141.2894  159.9710 O.2     1  UNL1       -0.2518
      4 N         139.4047  143.4394  161.2234 N.am    1  UNL1       -0.2282
      5 C         139.8026  144.8854  161.1983 C.3     1  UNL1        0.1015
      6 C         140.1525  145.5892  162.4758 C.3     1  UNL1        0.0268
      7 C         140.1046  144.8471  163.7784 C.3     1  UNL1        0.0310
      8 C         139.7067  143.4011  163.8036 C.ar    1  UNL1        0.0096
      9 C         139.6587  142.6589  165.1062 C.ar    1  UNL1       -0.0028
     10 C         139.2608  141.2129  165.1314 C.ar    1  UNL1        0.0146
     11 CA        138.9109  140.5090  163.8538 C.ar    1  UNL1        0.1221
     12 N         138.9588  141.2511  162.5512 N.ar    1  UNL1       -0.2275
     13 C         139.3567  142.6972  162.5261 C.ar    1  UNL1        0.1345
     14 H         139.3638  144.4267  158.6267 H       1  UNL1        0.1578
     15 C         136.9715  141.9823  155.6478 C.ar    1  UNL1        0.1525
     16 C         137.3214  142.6862  156.9254 C.ar    1  UNL1        0.0721
     17 C         138.7527  142.7737  157.3657 C.ar    1  UNL1        0.1384
     18 N         139.8340  142.1574  156.5285 N.ar    1  UNL1       -0.2281
     19 C         139.4840  141.4535  155.2509 C.ar    1  UNL1        0.1136
     20 C         138.0528  141.3660  154.8106 C.ar    1  UNL1        0.1215
     21 C         137.7028  140.6622  153.5331 C.1     1  UNL1        0.1051
     22 N         137.3528  139.9582  152.2555 N.1     1  UNL1       -0.1907
     23 O         135.5403  141.8948  155.2076 O.3     1  UNL1       -0.4719
     24 C         134.6687  140.7808  155.7070 C.3     1  UNL1        0.2373
     25 C         133.1899  140.9904  155.8465 C.3     1  UNL1        0.1894
     26 C         133.1169  139.3022  157.8199 C.3     1  UNL1        0.1743
     27 O         132.4439  140.3434  156.9755 O.3     1  UNL1       -0.3471
     28 C         138.5130  139.0629  163.8789 C.2     1  UNL1        0.2529
     29 O         139.5117  138.0038  163.5170 O.2     1  UNL1       -0.2815
     30 C         139.2129  140.4707  166.4340 C.3     1  UNL1        0.1008
     31 N         140.4873  140.0747  167.1189 N.3     1  UNL1       -0.2666
     32 C         141.5502  139.3390  166.3581 C.3     1  UNL1        0.0882
     33 C         142.8247  138.9429  167.0430 C.3     1  UNL1        0.0702
     34 C         143.8876  138.2073  166.2822 C.3     1  UNL1        0.0186
     35 N         143.0361  139.2825  168.4887 N.3     1  UNL1       -0.2974
     36 C         141.9730  140.0182  169.2495 C.3     1  UNL1        0.0702
     37 C         142.1844  140.3578  170.6951 C.3     1  UNL1        0.0186
     38 C         140.6986  140.4143  168.5646 C.3     1  UNL1        0.0882
     39 H         143.8805  139.8526  168.5368 H       1  UNL1        0.1232
@<TRIPOS>BOND
     1    26    27    1
     2    27    25    1
     3    25    24    1
     4    24    23    1
     5    23    15    1
     6    15    16   ar
     7    16    17   ar
     8    17     1    1
     9     1     2   am
    10     2     3    2
    11     2     4   am
    12     4     5    1
    13     5     6    1
    14     6     7    1
    15     7     8    1
    16     8     9   ar
    17     9    10   ar
    18    10    30    1
    19    30    31    1
    20    31    32    1
    21    32    33    1
    22    33    34    1
    23    33    35    1
    24    35    36    1
    25    36    37    1
    26    36    38    1
    27    10    11   ar
    28    11    28    1
    29    28    29    2
    30    11    12   ar
    31    12    13   ar
    32    17    18   ar
    33    18    19   ar
    34    19    20   ar
    35    20    21    1
    36    21    22    3
    37    20    15   ar
    38    13     4    1
    39    13     8   ar
    40    38    31    1
    41     1    14    1
    42    35    39    1
@<TRIPOS>MOLECULE
*****
 39 42 0 0 0
SMALL
GASTEIGER

@<TRIPOS>ATOM
      1 N         137.7470  140.1226  158.8535 N.am    1  UNL1       -0.2531
      2 C         138.2724  141.3897  158.2466 C.2     1  UNL1        0.3135
      3 O         139.4801  142.0580  158.8338 O.2     1  UNL1       -0.2518
      4 N         137.5901  141.9885  157.0524 N.am    1  UNL1       -0.2282
      5 C         136.3825  141.3202  156.4652 C.3     1  UNL1        0.1015
      6 C         135.7002  141.9190  155.2711 C.3     1  UNL1        0.0268
      7 C         136.2257  143.1861  154.6642 C.3     1  UNL1        0.0310
      8 C         137.4333  143.8544  155.2514 C.ar    1  UNL1        0.0096
      9 C         137.9588  145.1215  154.6445 C.ar    1  UNL1       -0.0028
     10 C         139.1664  145.7899  155.2317 C.ar    1  UNL1        0.0146
     11 CA        139.8487  145.1911  156.4258 C.ar    1  UNL1        0.1221
     12 N         139.3233  143.9240  157.0328 N.ar    1  UNL1       -0.2275
     13 C         138.1156  143.2556  156.4455 C.ar    1  UNL1        0.1345
     14 H         136.9544  139.6840  158.4681 H       1  UNL1        0.1578
     15 C         138.6284  139.2518  162.6238 C.ar    1  UNL1        0.1525
     16 C         137.9461  139.8506  161.4296 C.ar    1  UNL1        0.0721
     17 C         138.4292  139.5238  160.0476 C.ar    1  UNL1        0.1384
     18 N         139.5946  138.5983  159.8598 N.ar    1  UNL1       -0.2281
     19 C         140.2768  137.9995  161.0540 C.ar    1  UNL1        0.1136
     20 C         139.7937  138.3262  162.4359 C.ar    1  UNL1        0.1215
     21 C         140.4760  137.7274  163.6301 C.1     1  UNL1        0.1051
     22 N         141.1582  137.1286  164.8243 N.1     1  UNL1       -0.1907
     23 O         138.1452  139.5785  164.0057 O.3     1  UNL1       -0.4719
     24 C         138.5317  140.8780  164.6476 C.3     1  UNL1        0.2373
     25 C         137.7499  142.1232  164.3500 C.3     1  UNL1        0.1894
     26 C         138.6378  144.3083  163.2605 C.3     1  UNL1        0.1743
     27 O         138.0621  142.9299  163.1245 O.3     1  UNL1       -0.3471
     28 C         141.0564  145.8594  157.0130 C.2     1  UNL1        0.2529
     29 O         141.3621  145.7070  158.4737 O.2     1  UNL1       -0.2815
     30 C         139.6919  147.0570  154.6247 C.3     1  UNL1        0.1008
     31 N         139.2977  148.3844  155.2013 N.3     1  UNL1       -0.2666
     32 C         139.4466  149.6319  154.3819 C.3     1  UNL1        0.0882
     33 C         139.0524  150.9595  154.9584 C.3     1  UNL1        0.0702
     34 C         139.2013  152.2070  154.1390 C.3     1  UNL1        0.0186
     35 N         138.5094  151.0394  156.3544 N.3     1  UNL1       -0.2974
     36 C         138.3606  149.7918  157.1739 C.3     1  UNL1        0.0702
     37 C         137.8176  149.8717  158.5698 C.3     1  UNL1        0.0186
     38 C         138.7547  148.4643  156.5973 C.3     1  UNL1        0.0882
     39 H         137.5823  151.4592  156.2862 H       1  UNL1        0.1232
@<TRIPOS>BOND
     1    26    27    1
     2    27    25    1
     3    25    24    1
     4    24    23    1
     5    23    15    1
     6    15    16   ar
     7    16    17   ar
     8    17     1    1
     9     1     2   am
    10     2     3    2
    11     2     4   am
    12     4     5    1
    13     5     6    1
    14     6     7    1
    15     7     8    1
    16     8     9   ar
    17     9    10   ar
    18    10    30    1
    19    30    31    1
    20    31    32    1
    21    32    33    1
    22    33    34    1
    23    33    35    1
    24    35    36    1
    25    36    37    1
    26    36    38    1
    27    10    11   ar
    28    11    28    1
    29    28    29    2
    30    11    12   ar
    31    12    13   ar
    32    17    18   ar
    33    18    19   ar
    34    19    20   ar
    35    20    21    1
    36    21    22    3
    37    20    15   ar
    38    13     4    1
    39    13     8   ar
    40    38    31    1
    41     1    14    1
    42    35    39    1
@<TRIPOS>MOLECULE
*****
 39 42 0 0 0
SMALL
GASTEIGER

@<TRIPOS>ATOM
      1 N         141.5817  139.5472  163.5301 N.am    1  UNL1       -0.2531
      2 C         141.5256  140.7053  162.5785 C.2     1  UNL1        0.3135
      3 O         140.8955  141.9976  163.0061 O.2     1  UNL1       -0.2518
      4 N         142.0998  140.5712  161.1992 N.am    1  UNL1       -0.2282
      5 C         142.7299  139.2789  160.7715 C.3     1  UNL1        0.1015
      6 C         143.3040  139.1448  159.3922 C.3     1  UNL1        0.0268
      7 C         143.2479  140.3029  158.4406 C.3     1  UNL1        0.0310
      8 C         142.6178  141.5952  158.8683 C.ar    1  UNL1        0.0096
      9 C         142.5618  142.7534  157.9167 C.ar    1  UNL1       -0.0028
     10 C         141.9317  144.0456  158.3444 C.ar    1  UNL1        0.0146
     11 CA        141.3575  144.1798  159.7237 C.ar    1  UNL1        0.1221
     12 N         141.4136  143.0217  160.6753 N.ar    1  UNL1       -0.2275
     13 C         142.0437  141.7293  160.2476 C.ar    1  UNL1        0.1345
     14 H         141.9952  138.6990  163.2494 H       1  UNL1        0.1578
     15 C         141.3451  139.9948  167.4663 C.ar    1  UNL1        0.1525
     16 C         141.9192  139.8607  166.0870 C.ar    1  UNL1        0.0721
     17 C         141.0076  139.6813  164.9093 C.ar    1  UNL1        0.1384
     18 N         139.5219  139.6360  165.1110 N.ar    1  UNL1       -0.2281
     19 C         138.9478  139.7702  166.4903 C.ar    1  UNL1        0.1136
     20 C         139.8594  139.9495  167.6679 C.ar    1  UNL1        0.1215
     21 C         139.2853  140.0837  169.0472 C.1     1  UNL1        0.1051
     22 N         138.7112  140.2178  170.4265 N.1     1  UNL1       -0.1907
     23 O         142.2567  140.1742  168.6438 O.3     1  UNL1       -0.4719
     24 C         142.6188  141.5536  169.1087 C.3     1  UNL1        0.2373
     25 C         142.2818  141.9872  170.5046 C.3     1  UNL1        0.1894
     26 C         140.4588  143.5877  169.5748 C.3     1  UNL1        0.1743
     27 O         141.1552  142.9492  170.7398 O.3     1  UNL1       -0.3471
     28 C         140.7274  145.4721  160.1513 C.2     1  UNL1        0.2529
     29 O         139.5301  145.4598  161.0549 O.2     1  UNL1       -0.2815
     30 C         141.8756  145.2038  157.3928 C.3     1  UNL1        0.1008
     31 N         140.6062  145.5061  156.6532 N.3     1  UNL1       -0.2666
     32 C         139.5941  144.4225  156.4265 C.3     1  UNL1        0.0882
     33 C         138.3245  144.7248  155.6869 C.3     1  UNL1        0.0702
     34 C         137.3124  143.6412  155.4602 C.3     1  UNL1        0.0186
     35 N         138.0671  146.1107  155.1741 N.3     1  UNL1       -0.2974
     36 C         139.0793  147.1943  155.4009 C.3     1  UNL1        0.0702
     37 C         138.8219  148.5803  154.8880 C.3     1  UNL1        0.0186
     38 C         140.3487  146.8920  156.1404 C.3     1  UNL1        0.0882
     39 H         137.1969  146.4263  155.6025 H       1  UNL1        0.1232
@<TRIPOS>BOND
     1    26    27    1
     2    27    25    1
     3    25    24    1
     4    24    23    1
     5    23    15    1
     6    15    16   ar
     7    16    17   ar
     8    17     1    1
     9     1     2   am
    10     2     3    2
    11     2     4   am
    12     4     5    1
    13     5     6    1
    14     6     7    1
    15     7     8    1
    16     8     9   ar
    17     9    10   ar
    18    10    30    1
    19    30    31    1
    20    31    32    1
    21    32    33    1
    22    33    34    1
    23    33    35    1
    24    35    36    1
    25    36    37    1
    26    36    38    1
    27    10    11   ar
    28    11    28    1
    29    28    29    2
    30    11    12   ar
    31    12    13   ar
    32    17    18   ar
    33    18    19   ar
    34    19    20   ar
    35    20    21    1
    36    21    22    3
    37    20    15   ar
    38    13     4    1
    39    13     8   ar
    40    38    31    1
    41     1    14    1
    42    35    39    1
@<TRIPOS>MOLECULE
*****
 39 42 0 0 0
SMALL
GASTEIGER

@<TRIPOS>ATOM
      1 N         143.3257  138.6764  157.5812 N.am    1  UNL1       -0.2531
      2 C         142.3432  139.0192  158.6616 C.2     1  UNL1        0.3135
      3 O         141.0539  138.2606  158.7712 O.2     1  UNL1       -0.2518
      4 N         142.6502  140.1207  159.6325 N.am    1  UNL1       -0.2282
      5 C         143.9395  140.8794  159.5229 C.3     1  UNL1        0.1015
      6 C         144.2464  141.9808  160.4938 C.3     1  UNL1        0.0268
      7 C         143.2640  142.3236  161.5742 C.3     1  UNL1        0.0310
      8 C         141.9747  141.5650  161.6837 C.ar    1  UNL1        0.0096
      9 C         140.9922  141.9078  162.7642 C.ar    1  UNL1       -0.0028
     10 C         139.7029  141.1492  162.8737 C.ar    1  UNL1        0.0146
     11 CA        139.3959  140.0477  161.9028 C.ar    1  UNL1        0.1221
     12 N         140.3784  139.7048  160.8224 N.ar    1  UNL1       -0.2275
     13 C         141.6678  140.4635  160.7129 C.ar    1  UNL1        0.1345
     14 H         144.1719  139.1743  157.5093 H       1  UNL1        0.1578
     15 C         142.8147  135.0412  156.0732 C.ar    1  UNL1        0.1525
     16 C         143.1216  136.1426  157.0440 C.ar    1  UNL1        0.0721
     17 C         143.0188  137.5750  156.6103 C.ar    1  UNL1        0.1384
     18 N         142.6091  137.9057  155.2058 N.ar    1  UNL1       -0.2281
     19 C         142.3022  136.8042  154.2349 C.ar    1  UNL1        0.1136
     20 C         142.4050  135.3720  154.6686 C.ar    1  UNL1        0.1215
     21 C         142.0981  134.2705  153.6978 C.1     1  UNL1        0.1051
     22 N         141.7912  133.1690  152.7269 N.1     1  UNL1       -0.1907
     23 O         142.9176  133.6090  156.5068 O.3     1  UNL1       -0.4719
     24 C         144.2341  132.8945  156.4290 C.3     1  UNL1        0.2373
     25 C         144.8708  132.3571  157.6764 C.3     1  UNL1        0.1894
     26 C         143.6248  130.0989  157.3631 C.3     1  UNL1        0.1743
     27 O         144.6572  130.9256  158.0706 O.3     1  UNL1       -0.3471
     28 C         138.1066  139.2890  162.0124 C.2     1  UNL1        0.2529
     29 O         138.1213  137.8332  162.3736 O.2     1  UNL1       -0.2815
     30 C         138.7204  141.4920  163.9541 C.3     1  UNL1        0.1008
     31 N         138.8183  140.8274  165.2953 N.3     1  UNL1       -0.2666
     32 C         138.0134  139.5945  165.5819 C.3     1  UNL1        0.0882
     33 C         138.1113  138.9299  166.9231 C.3     1  UNL1        0.0702
     34 C         137.3064  137.6970  167.2097 C.3     1  UNL1        0.0186
     35 N         139.0141  139.4982  167.9776 N.3     1  UNL1       -0.2974
     36 C         139.8190  140.7311  167.6910 C.3     1  UNL1        0.0702
     37 C         140.7217  141.2994  168.7455 C.3     1  UNL1        0.0186
     38 C         139.7211  141.3957  166.3498 C.3     1  UNL1        0.0882
     39 H         139.6778  138.7639  168.2240 H       1  UNL1        0.1232
@<TRIPOS>BOND
     1    26    27    1
     2    27    25    1
     3    25    24    1
     4    24    23    1
     5    23    15    1
     6    15    16   ar
     7    16    17   ar
     8    17     1    1
     9     1     2   am
    10     2     3    2
    11     2     4   am
    12     4     5    1
    13     5     6    1
    14     6     7    1
    15     7     8    1
    16     8     9   ar
    17     9    10   ar
    18    10    30    1
    19    30    31    1
    20    31    32    1
    21    32    33    1
    22    33    34    1
    23    33    35    1
    24    35    36    1
    25    36    37    1
    26    36    38    1
    27    10    11   ar
    28    11    28    1
    29    28    29    2
    30    11    12   ar
    31    12    13   ar
    32    17    18   ar
    33    18    19   ar
    34    19    20   ar
    35    20    21    1
    36    21    22    3
    37    20    15   ar
    38    13     4    1
    39    13     8   ar
    40    38    31    1
    41     1    14    1
    42    35    39    1
@<TRIPOS>MOLECULE
*****
 39 42 0 0 0
SMALL
GASTEIGER

@<TRIPOS>ATOM
      1 N         141.4635  141.9776  164.9276 N.am    1  UNL1       -0.2531
      2 C         141.6119  142.3342  163.4782 C.2     1  UNL1        0.3135
      3 O         142.5118  141.5224  162.5944 O.2     1  UNL1       -0.2518
      4 N         140.8604  143.5027  162.9126 N.am    1  UNL1       -0.2282
      5 C         139.9605  144.3146  163.7963 C.3     1  UNL1        0.1015
      6 C         139.2091  145.4830  163.2307 C.3     1  UNL1        0.0268
      7 C         139.3575  145.8396  161.7813 C.3     1  UNL1        0.0310
      8 C         140.2573  145.0278  160.8975 C.ar    1  UNL1        0.0096
      9 C         140.4057  145.3844  159.4481 C.ar    1  UNL1       -0.0028
     10 C         141.3056  144.5726  158.5643 C.ar    1  UNL1        0.0146
     11 CA        142.0571  143.4041  159.1299 C.ar    1  UNL1        0.1221
     12 N         141.9087  143.0474  160.5793 N.ar    1  UNL1       -0.2275
     13 C         141.0088  143.8594  161.4631 C.ar    1  UNL1        0.1345
     14 H         140.8729  142.5105  165.5076 H       1  UNL1        0.1578
     15 C         142.9107  139.3543  167.5302 C.ar    1  UNL1        0.1525
     16 C         142.1592  140.5227  166.9646 C.ar    1  UNL1        0.0721
     17 C         142.2150  140.8091  165.4932 C.ar    1  UNL1        0.1384
     18 N         143.0222  139.9271  164.5875 N.ar    1  UNL1       -0.2281
     19 C         143.7737  138.7586  165.1532 C.ar    1  UNL1        0.1136
     20 C         143.7179  138.4722  166.6245 C.ar    1  UNL1        0.1215
     21 C         144.4694  137.3037  167.1902 C.1     1  UNL1        0.1051
     22 N         145.2209  136.1352  167.7558 N.1     1  UNL1       -0.1907
     23 O         142.8549  139.0679  169.0016 O.3     1  UNL1       -0.4719
     24 C         141.7098  139.5820  169.8228 C.3     1  UNL1        0.2373
     25 C         141.9123  140.7470  170.7457 C.3     1  UNL1        0.1894
     26 C         139.8863  142.3734  170.7246 C.3     1  UNL1        0.1743
     27 O         140.7362  141.3663  171.4410 O.3     1  UNL1       -0.3471
     28 C         142.9570  142.5922  158.2461 C.2     1  UNL1        0.2529
     29 O         144.4460  142.6931  158.3966 O.2     1  UNL1       -0.2815
     30 C         141.4540  144.9292  157.1149 C.3     1  UNL1        0.1008
     31 N         140.2863  145.4869  156.3564 N.3     1  UNL1       -0.2666
     32 C         140.1639  146.9677  156.1506 C.3     1  UNL1        0.0882
     33 C         138.9962  147.5255  155.3921 C.3     1  UNL1        0.0702
     34 C         138.8738  149.0062  155.1863 C.3     1  UNL1        0.0186
     35 N         137.9509  146.6025  154.8394 N.3     1  UNL1       -0.2974
     36 C         138.0733  145.1217  155.0452 C.3     1  UNL1        0.0702
     37 C         137.0280  144.1987  154.4925 C.3     1  UNL1        0.0186
     38 C         139.2410  144.5640  155.8037 C.3     1  UNL1        0.0882
     39 H         137.9234  146.7585  153.8317 H       1  UNL1        0.1232
@<TRIPOS>BOND
     1    26    27    1
     2    27    25    1
     3    25    24    1
     4    24    23    1
     5    23    15    1
     6    15    16   ar
     7    16    17   ar
     8    17     1    1
     9     1     2   am
    10     2     3    2
    11     2     4   am
    12     4     5    1
    13     5     6    1
    14     6     7    1
    15     7     8    1
    16     8     9   ar
    17     9    10   ar
    18    10    30    1
    19    30    31    1
    20    31    32    1
    21    32    33    1
    22    33    34    1
    23    33    35    1
    24    35    36    1
    25    36    37    1
    26    36    38    1
    27    10    11   ar
    28    11    28    1
    29    28    29    2
    30    11    12   ar
    31    12    13   ar
    32    17    18   ar
    33    18    19   ar
    34    19    20   ar
    35    20    21    1
    36    21    22    3
    37    20    15   ar
    38    13     4    1
    39    13     8   ar
    40    38    31    1
    41     1    14    1
    42    35    39    1
@<TRIPOS>MOLECULE
*****
 39 42 0 0 0
SMALL
GASTEIGER

@<TRIPOS>ATOM
      1 N         142.7744  142.6330  164.4549 N.am    1  UNL1       -0.2531
      2 C         142.2098  141.7441  163.3867 C.2     1  UNL1        0.3135
      3 O         141.0133  140.8878  163.6786 O.2     1  UNL1       -0.2518
      4 N         142.8416  141.7116  162.0266 N.am    1  UNL1       -0.2282
      5 C         144.0381  142.5679  161.7348 C.3     1  UNL1        0.1015
      6 C         144.6698  142.5354  160.3748 C.3     1  UNL1        0.0268
      7 C         144.1052  141.6465  159.3066 C.3     1  UNL1        0.0310
      8 C         142.9088  140.7902  159.5984 C.ar    1  UNL1        0.0096
      9 C         142.3442  139.9013  158.5302 C.ar    1  UNL1       -0.0028
     10 C         141.1477  139.0449  158.8220 C.ar    1  UNL1        0.0146
     11 CA        140.5159  139.0774  160.1821 C.ar    1  UNL1        0.1221
     12 N         141.0805  139.9663  161.2503 N.ar    1  UNL1       -0.2275
     13 C         142.2770  140.8227  160.9584 C.ar    1  UNL1        0.1345
     14 H         143.5597  143.1951  164.2634 H       1  UNL1        0.1578
     15 C         142.2984  142.2715  168.3783 C.ar    1  UNL1        0.1525
     16 C         142.9302  142.2389  167.0183 C.ar    1  UNL1        0.0721
     17 C         142.1426  142.6656  165.8150 C.ar    1  UNL1        0.1384
     18 N         140.7233  143.1247  165.9718 N.ar    1  UNL1       -0.2281
     19 C         140.0915  143.1573  167.3319 C.ar    1  UNL1        0.1136
     20 C         140.8790  142.7307  168.5351 C.ar    1  UNL1        0.1215
     21 C         140.2472  142.7632  169.8952 C.1     1  UNL1        0.1051
     22 N         139.6154  142.7958  171.2552 N.1     1  UNL1       -0.1907
     23 O         143.0860  141.8449  169.5815 O.3     1  UNL1       -0.4719
     24 C         142.9876  140.4338  170.0806 C.3     1  UNL1        0.2373
     25 C         142.4268  139.3619  169.1936 C.3     1  UNL1        0.1894
     26 C         142.9372  138.7185  166.7287 C.3     1  UNL1        0.1743
     27 O         143.3066  138.6889  168.1822 O.3     1  UNL1       -0.3471
     28 C         139.3195  138.2211  160.4739 C.2     1  UNL1        0.2529
     29 O         138.9645  137.8867  161.8925 O.2     1  UNL1       -0.2815
     30 C         140.5831  138.1560  157.7538 C.3     1  UNL1        0.1008
     31 N         141.4710  137.6404  156.6604 N.3     1  UNL1       -0.2666
     32 C         141.6075  138.4095  155.3798 C.3     1  UNL1        0.0882
     33 C         142.4955  137.8939  154.2862 C.3     1  UNL1        0.0702
     34 C         142.6320  138.6630  153.0057 C.3     1  UNL1        0.0186
     35 N         143.2469  136.6093  154.4733 N.3     1  UNL1       -0.2974
     36 C         143.1104  135.8402  155.7540 C.3     1  UNL1        0.0702
     37 C         143.8618  134.5555  155.9411 C.3     1  UNL1        0.0186
     38 C         142.2225  136.3558  156.8474 C.3     1  UNL1        0.0882
     39 H         144.2372  136.8290  154.3660 H       1  UNL1        0.1232
@<TRIPOS>BOND
     1    26    27    1
     2    27    25    1
     3    25    24    1
     4    24    23    1
     5    23    15    1
     6    15    16   ar
     7    16    17   ar
     8    17     1    1
     9     1     2   am
    10     2     3    2
    11     2     4   am
    12     4     5    1
    13     5     6    1
    14     6     7    1
    15     7     8    1
    16     8     9   ar
    17     9    10   ar
    18    10    30    1
    19    30    31    1
    20    31    32    1
    21    32    33    1
    22    33    34    1
    23    33    35    1
    24    35    36    1
    25    36    37    1
    26    36    38    1
    27    10    11   ar
    28    11    28    1
    29    28    29    2
    30    11    12   ar
    31    12    13   ar
    32    17    18   ar
    33    18    19   ar
    34    19    20   ar
    35    20    21    1
    36    21    22    3
    37    20    15   ar
    38    13     4    1
    39    13     8   ar
    40    38    31    1
    41     1    14    1
    42    35    39    1
@<TRIPOS>MOLECULE
*****
 39 42 0 0 0
SMALL
GASTEIGER

@<TRIPOS>ATOM
      1 N         142.7208  141.6346  159.5479 N.am    1  UNL1       -0.2531
      2 C         142.6079  141.2452  160.9921 C.2     1  UNL1        0.3135
      3 O         142.0149  139.9195  161.3673 O.2     1  UNL1       -0.2518
      4 N         143.0879  142.1817  162.0611 N.am    1  UNL1       -0.2282
      5 C         143.6809  143.5074  161.6858 C.3     1  UNL1        0.1015
      6 C         144.1609  144.4438  162.7548 C.3     1  UNL1        0.0268
      7 C         144.0480  144.0544  164.1990 C.3     1  UNL1        0.0310
      8 C         143.4551  142.7287  164.5742 C.ar    1  UNL1        0.0096
      9 C         143.3422  142.3393  166.0184 C.ar    1  UNL1       -0.0028
     10 C         142.7492  141.0136  166.3936 C.ar    1  UNL1        0.0146
     11 CA        142.2692  140.0772  165.3246 C.ar    1  UNL1        0.1221
     12 N         142.3821  140.4665  163.8804 N.ar    1  UNL1       -0.2275
     13 C         142.9750  141.7923  163.5052 C.ar    1  UNL1        0.1345
     14 H         143.1099  142.5048  159.3016 H       1  UNL1        0.1578
     15 C         142.5649  138.5441  157.0631 C.ar    1  UNL1        0.1525
     16 C         143.0450  139.4804  158.1321 C.ar    1  UNL1        0.0721
     17 C         142.2407  140.6982  158.4789 C.ar    1  UNL1        0.1384
     18 N         140.9565  140.9796  157.7567 N.ar    1  UNL1       -0.2281
     19 C         140.4765  140.0432  156.6877 C.ar    1  UNL1        0.1136
     20 C         141.2807  138.8254  156.3409 C.ar    1  UNL1        0.1215
     21 C         140.8007  137.8891  155.2720 C.1     1  UNL1        0.1051
     22 N         140.3206  136.9526  154.2029 N.1     1  UNL1       -0.1907
     23 O         143.3691  137.3263  156.7163 O.3     1  UNL1       -0.4719
     24 C         143.0301  136.0024  157.3348 C.3     1  UNL1        0.2373
     25 C         142.7097  134.8263  156.4605 C.3     1  UNL1        0.1894
     26 C         144.2954  133.0994  157.5800 C.3     1  UNL1        0.1743
     27 O         142.9759  133.4336  156.9498 O.3     1  UNL1       -0.3471
     28 C         141.6762  138.7514  165.6998 C.2     1  UNL1        0.2529
     29 O         140.1865  138.5841  165.7527 O.2     1  UNL1       -0.2815
     30 C         142.6363  140.6243  167.8378 C.3     1  UNL1        0.1008
     31 N         141.5029  141.1477  168.6693 N.3     1  UNL1       -0.2666
     32 C         140.4006  140.2260  169.0998 C.3     1  UNL1        0.0882
     33 C         139.2671  140.7494  169.9313 C.3     1  UNL1        0.0702
     34 C         138.1648  139.8278  170.3618 C.3     1  UNL1        0.0186
     35 N         139.2361  142.1945  170.3323 N.3     1  UNL1       -0.2974
     36 C         140.3385  143.1162  169.9018 C.3     1  UNL1        0.0702
     37 C         140.3075  144.5612  170.3028 C.3     1  UNL1        0.0186
     38 C         141.4719  142.5927  169.0703 C.3     1  UNL1        0.0882
     39 H         139.2150  142.2168  171.3519 H       1  UNL1        0.1232
@<TRIPOS>BOND
     1    26    27    1
     2    27    25    1
     3    25    24    1
     4    24    23    1
     5    23    15    1
     6    15    16   ar
     7    16    17   ar
     8    17     1    1
     9     1     2   am
    10     2     3    2
    11     2     4   am
    12     4     5    1
    13     5     6    1
    14     6     7    1
    15     7     8    1
    16     8     9   ar
    17     9    10   ar
    18    10    30    1
    19    30    31    1
    20    31    32    1
    21    32    33    1
    22    33    34    1
    23    33    35    1
    24    35    36    1
    25    36    37    1
    26    36    38    1
    27    10    11   ar
    28    11    28    1
    29    28    29    2
    30    11    12   ar
    31    12    13   ar
    32    17    18   ar
    33    18    19   ar
    34    19    20   ar
    35    20    21    1
    36    21    22    3
    37    20    15   ar
    38    13     4    1
    39    13     8   ar
    40    38    31    1
    41     1    14    1
    42    35    39    1
@<TRIPOS>MOLECULE
*****
 39 42 0 0 0
SMALL
GASTEIGER

@<TRIPOS>ATOM
      1 N         143.7195  137.5350  156.0692 N.am    1  UNL1       -0.2531
      2 C         142.9268  138.5942  156.7762 C.2     1  UNL1        0.3135
      3 O         141.5275  138.3045  157.2325 O.2     1  UNL1       -0.2518
      4 N         143.5334  139.9430  157.0269 N.am    1  UNL1       -0.2282
      5 C         144.9326  140.2326  156.5706 C.3     1  UNL1        0.1015
      6 C         145.5391  141.5814  156.8213 C.3     1  UNL1        0.0268
      7 C         144.7465  142.6405  157.5283 C.3     1  UNL1        0.0310
      8 C         143.3472  142.3509  157.9846 C.ar    1  UNL1        0.0096
      9 C         142.5546  143.4100  158.6916 C.ar    1  UNL1       -0.0028
     10 C         141.1553  143.1204  159.1479 C.ar    1  UNL1        0.0146
     11 CA        140.5487  141.7716  158.8972 C.ar    1  UNL1        0.1221
     12 N         141.3414  140.7125  158.1902 N.ar    1  UNL1       -0.2275
     13 C         142.7407  141.0021  157.7339 C.ar    1  UNL1        0.1345
     14 H         144.6378  137.7251  155.7697 H       1  UNL1        0.1578
     15 C         142.7662  133.7092  156.5215 C.ar    1  UNL1        0.1525
     16 C         143.3728  135.0580  156.7722 C.ar    1  UNL1        0.0721
     17 C         143.1129  136.1862  155.8185 C.ar    1  UNL1        0.1384
     18 N         142.2465  135.9657  154.6140 N.ar    1  UNL1       -0.2281
     19 C         141.6399  134.6168  154.3634 C.ar    1  UNL1        0.1136
     20 C         141.8998  133.4886  155.3171 C.ar    1  UNL1        0.1215
     21 C         141.2933  132.1399  155.0664 C.1     1  UNL1        0.1051
     22 N         140.6867  130.7910  154.8157 N.1     1  UNL1       -0.1907
     23 O         143.0261  132.5810  157.4752 O.3     1  UNL1       -0.4719
     24 C         144.3445  131.8660  157.4498 C.3     1  UNL1        0.2373
     25 C         144.9154  131.3917  156.1462 C.3     1  UNL1        0.1894
     26 C         144.3078  130.0969  153.9773 C.3     1  UNL1        0.1743
     27 O         144.3444  130.1781  155.4746 O.3     1  UNL1       -0.3471
     28 C         139.1495  141.4820  159.3535 C.2     1  UNL1        0.2529
     29 O         138.2904  140.5271  158.5787 O.2     1  UNL1       -0.2815
     30 C         140.3627  144.1796  159.8549 C.3     1  UNL1        0.1008
     31 N         140.5116  144.3646  161.3359 N.3     1  UNL1       -0.2666
     32 C         141.8647  144.6303  161.9262 C.3     1  UNL1        0.0882
     33 C         142.0137  144.8153  163.4073 C.3     1  UNL1        0.0702
     34 C         143.3668  145.0810  163.9976 C.3     1  UNL1        0.0186
     35 N         140.8095  144.7346  164.2981 N.3     1  UNL1       -0.2974
     36 C         139.4563  144.4689  163.7077 C.3     1  UNL1        0.0702
     37 C         138.2522  144.3883  164.5985 C.3     1  UNL1        0.0186
     38 C         139.3074  144.2839  162.2267 C.3     1  UNL1        0.0882
     39 H         140.7465  145.6262  164.7895 H       1  UNL1        0.1232
@<TRIPOS>BOND
     1    26    27    1
     2    27    25    1
     3    25    24    1
     4    24    23    1
     5    23    15    1
     6    15    16   ar
     7    16    17   ar
     8    17     1    1
     9     1     2   am
    10     2     3    2
    11     2     4   am
    12     4     5    1
    13     5     6    1
    14     6     7    1
    15     7     8    1
    16     8     9   ar
    17     9    10   ar
    18    10    30    1
    19    30    31    1
    20    31    32    1
    21    32    33    1
    22    33    34    1
    23    33    35    1
    24    35    36    1
    25    36    37    1
    26    36    38    1
    27    10    11   ar
    28    11    28    1
    29    28    29    2
    30    11    12   ar
    31    12    13   ar
    32    17    18   ar
    33    18    19   ar
    34    19    20   ar
    35    20    21    1
    36    21    22    3
    37    20    15   ar
    38    13     4    1
    39    13     8   ar
    40    38    31    1
    41     1    14    1
    42    35    39    1
