@<TRIPOS>MOLECULE
*****
 27 29 0 0 0
SMALL
GASTEIGER

@<TRIPOS>ATOM
      1 N         143.4082  143.9134  171.2727 N.pl3   1  UNL1       -0.3375
      2 C         142.6088  142.9903  170.4015 C.ar    1  UNL1        0.1568
      3 N         141.2448  142.4478  170.7098 N.ar    1  UNL1       -0.2214
      4 C         140.8261  141.5699  169.5679 C.ar    1  UNL1        0.1227
      5 C         139.5812  140.7706  169.3205 C.ar    1  UNL1        0.1518
      6 O         138.4759  140.7707  170.3346 O.3     1  UNL1       -0.5040
      7 C         139.4415  139.9711  168.0590 C.ar    1  UNL1        0.0427
      8 C         140.5468  139.9710  167.0449 C.ar    1  UNL1        0.0570
      9 C         141.7917  140.7704  167.2924 C.ar    1  UNL1        0.0128
     10 C         141.9313  141.5698  168.5538 C.ar    1  UNL1        0.0528
     11 S         143.0331  142.4477  169.0690 S.2     1  UNL1       -0.0519
     12 H         143.0423  144.2164  172.1350 H       1  UNL1        0.1442
     13 H         144.2988  144.2162  170.9822 H       1  UNL1        0.1442
     14 H         138.5631  141.2701  171.1226 H       1  UNL1        0.2923
     15 C         140.4072  139.1716  165.7834 C.2     1  UNL1        0.2462
     16 O         141.6160  138.8731  164.9470 O.2     1  UNL1       -0.2701
     17 N         139.0587  138.6706  165.3584 N.am    1  UNL1       -0.2969
     18 H         138.2653  138.8666  165.9074 H       1  UNL1        0.1501
     19 C         138.9190  137.8712  164.0968 C.3     1  UNL1        0.1166
     20 C         138.7240  138.5698  162.7839 C.ar    1  UNL1       -0.0017
     21 C         137.8814  139.8087  162.7115 C.ar    1  UNL1       -0.0017
     22 C         137.6864  140.5073  161.3984 C.ar    1  UNL1        0.0120
     23 C         138.3338  139.9670  160.1580 C.ar    1  UNL1        0.0682
     24 CL        138.1387  140.6656  158.8450 Cl      1  UNL1       -0.0814
     25 C         139.1763  138.7281  160.2304 C.ar    1  UNL1        0.0679
     26 CL        139.8238  138.1878  158.9899 Cl      1  UNL1       -0.0814
     27 C         139.3714  138.0295  161.5433 C.ar    1  UNL1        0.0096
@<TRIPOS>BOND
     1     1     2    1
     2     2     3   ar
     3     3     4   ar
     4     4     5   ar
     5     5     6    1
     6     5     7   ar
     7     7     8   ar
     8     8    15    1
     9    15    16    2
    10    15    17   am
    11    17    19    1
    12    19    20    1
    13    20    21   ar
    14    21    22   ar
    15    22    23   ar
    16    23    24    1
    17    23    25   ar
    18    25    26    1
    19    25    27   ar
    20     8     9   ar
    21     9    10   ar
    22    10    11   ar
    23    11     2   ar
    24    10     4   ar
    25    27    20   ar
    26     1    12    1
    27     1    13    1
    28     6    14    1
    29    17    18    1
@<TRIPOS>MOLECULE
*****
 27 29 0 0 0
SMALL
GASTEIGER

@<TRIPOS>ATOM
      1 N         144.7376  142.8248  170.1587 N.pl3   1  UNL1       -0.3375
      2 C         143.4825  142.1779  169.6523 C.ar    1  UNL1        0.1568
      3 N         142.4981  141.3998  170.4742 N.ar    1  UNL1       -0.2214
      4 C         141.3987  140.9366  169.5649 C.ar    1  UNL1        0.1227
      5 C         140.1594  140.1305  169.8183 C.ar    1  UNL1        0.1518
      6 O         139.8545  139.6387  171.2022 O.3     1  UNL1       -0.5040
      7 C         139.2249  139.8162  168.6878 C.ar    1  UNL1        0.0427
      8 C         139.5298  140.3080  167.3039 C.ar    1  UNL1        0.0570
      9 C         140.7693  141.1141  167.0505 C.ar    1  UNL1        0.0128
     10 C         141.7037  141.4284  168.1810 C.ar    1  UNL1        0.0528
     11 S         142.9915  142.1956  168.2350 S.2     1  UNL1       -0.0519
     12 H         144.9761  142.7575  171.1115 H       1  UNL1        0.1442
     13 H         145.3228  143.3166  169.5383 H       1  UNL1        0.1442
     14 H         140.4382  139.8351  171.9084 H       1  UNL1        0.2923
     15 C         138.5954  139.9937  166.1734 C.2     1  UNL1        0.2462
     16 O         137.6157  138.8652  166.3018 O.2     1  UNL1       -0.2701
     17 N         138.6408  140.8079  164.9145 N.am    1  UNL1       -0.2969
     18 H         139.2839  141.5486  164.8302 H       1  UNL1        0.1501
     19 C         137.7064  140.4937  163.7839 C.3     1  UNL1        0.1166
     20 C         138.2436  139.9324  162.5009 C.ar    1  UNL1       -0.0017
     21 C         139.1567  138.7426  162.5269 C.ar    1  UNL1       -0.0017
     22 C         139.6939  138.1813  161.2437 C.ar    1  UNL1        0.0120
     23 C         139.3180  138.8097  159.9346 C.ar    1  UNL1        0.0682
     24 CL        139.8552  138.2484  158.6516 Cl      1  UNL1       -0.0814
     25 C         138.4048  139.9995  159.9086 C.ar    1  UNL1        0.0679
     26 CL        138.0289  140.6279  158.5996 Cl      1  UNL1       -0.0814
     27 C         137.8676  140.5608  161.1917 C.ar    1  UNL1        0.0096
@<TRIPOS>BOND
     1     1     2    1
     2     2     3   ar
     3     3     4   ar
     4     4     5   ar
     5     5     6    1
     6     5     7   ar
     7     7     8   ar
     8     8    15    1
     9    15    16    2
    10    15    17   am
    11    17    19    1
    12    19    20    1
    13    20    21   ar
    14    21    22   ar
    15    22    23   ar
    16    23    24    1
    17    23    25   ar
    18    25    26    1
    19    25    27   ar
    20     8     9   ar
    21     9    10   ar
    22    10    11   ar
    23    11     2   ar
    24    10     4   ar
    25    27    20   ar
    26     1    12    1
    27     1    13    1
    28     6    14    1
    29    17    18    1
@<TRIPOS>MOLECULE
*****
 27 29 0 0 0
SMALL
GASTEIGER

@<TRIPOS>ATOM
      1 N         143.2229  143.5540  171.0511 N.pl3   1  UNL1       -0.3375
      2 C         142.3167  142.7117  170.2030 C.ar    1  UNL1        0.1568
      3 N         141.1621  141.8895  170.6939 N.ar    1  UNL1       -0.2214
      4 C         140.5377  141.2134  169.5095 C.ar    1  UNL1        0.1227
      5 C         139.3685  140.2818  169.3865 C.ar    1  UNL1        0.1518
      6 O         138.5998  139.8775  170.6095 O.3     1  UNL1       -0.5040
      7 C         138.9680  139.7545  168.0405 C.ar    1  UNL1        0.0427
      8 C         139.7367  140.1588  166.8176 C.ar    1  UNL1        0.0570
      9 C         140.9059  141.0904  166.9406 C.ar    1  UNL1        0.0128
     10 C         141.3064  141.6177  168.2865 C.ar    1  UNL1        0.0528
     11 S         142.4058  142.5437  168.7152 S.2     1  UNL1       -0.0519
     12 H         143.0834  143.6006  172.0246 H       1  UNL1        0.1442
     13 H         143.9573  144.0602  170.6343 H       1  UNL1        0.1442
     14 H         138.8500  140.2069  171.4502 H       1  UNL1        0.2923
     15 C         139.3362  139.6315  165.4716 C.2     1  UNL1        0.2462
     16 O         138.8302  140.5716  164.4180 O.2     1  UNL1       -0.2701
     17 N         139.4417  138.1641  165.1793 N.am    1  UNL1       -0.2969
     18 H         139.7738  137.5470  165.8708 H       1  UNL1        0.1501
     19 C         139.0412  137.6367  163.8333 C.3     1  UNL1        0.1166
     20 C         139.9284  137.8624  162.6451 C.ar    1  UNL1       -0.0017
     21 C         139.3261  138.1855  161.3099 C.ar    1  UNL1       -0.0017
     22 C         140.2133  138.4111  160.1216 C.ar    1  UNL1        0.0120
     23 C         141.7029  138.3136  160.2686 C.ar    1  UNL1        0.0682
     24 CL        142.5901  138.5393  159.0804 Cl      1  UNL1       -0.0814
     25 C         142.3053  137.9905  161.6038 C.ar    1  UNL1        0.0679
     26 CL        143.7948  137.8931  161.7508 Cl      1  UNL1       -0.0814
     27 C         141.4181  137.7649  162.7920 C.ar    1  UNL1        0.0096
@<TRIPOS>BOND
     1     1     2    1
     2     2     3   ar
     3     3     4   ar
     4     4     5   ar
     5     5     6    1
     6     5     7   ar
     7     7     8   ar
     8     8    15    1
     9    15    16    2
    10    15    17   am
    11    17    19    1
    12    19    20    1
    13    20    21   ar
    14    21    22   ar
    15    22    23   ar
    16    23    24    1
    17    23    25   ar
    18    25    26    1
    19    25    27   ar
    20     8     9   ar
    21     9    10   ar
    22    10    11   ar
    23    11     2   ar
    24    10     4   ar
    25    27    20   ar
    26     1    12    1
    27     1    13    1
    28     6    14    1
    29    17    18    1
@<TRIPOS>MOLECULE
*****
 27 29 0 0 0
SMALL
GASTEIGER

@<TRIPOS>ATOM
      1 N         139.9625  144.9268  170.4401 N.pl3   1  UNL1       -0.3375
      2 C         140.5442  143.6606  169.8850 C.ar    1  UNL1        0.1568
      3 N         141.3429  142.6475  170.6503 N.ar    1  UNL1       -0.2214
      4 C         141.7217  141.5459  169.7053 C.ar    1  UNL1        0.1227
      5 C         142.5078  140.2832  169.8992 C.ar    1  UNL1        0.1518
      6 O         143.0724  139.9510  171.2486 O.3     1  UNL1       -0.5040
      7 C         142.7292  139.3526  168.7437 C.ar    1  UNL1        0.0427
      8 C         142.1646  139.6849  167.3943 C.ar    1  UNL1        0.0570
      9 C         141.3785  140.9476  167.2005 C.ar    1  UNL1        0.0128
     10 C         141.1570  141.8781  168.3559 C.ar    1  UNL1        0.0528
     11 S         140.4293  143.1850  168.4670 S.2     1  UNL1       -0.0519
     12 H         140.0925  145.1535  171.3893 H       1  UNL1        0.1442
     13 H         139.4506  145.5312  169.8554 H       1  UNL1        0.1442
     14 H         142.9341  140.5322  171.9704 H       1  UNL1        0.2923
     15 C         142.3860  138.7544  166.2388 C.2     1  UNL1        0.2462
     16 O         143.7745  138.3028  165.8950 O.2     1  UNL1       -0.2701
     17 N         141.2190  138.2756  165.4272 N.am    1  UNL1       -0.2969
     18 H         140.3077  138.5720  165.6529 H       1  UNL1        0.1501
     19 C         141.4404  137.3451  164.2717 C.3     1  UNL1        0.1166
     20 C         140.9505  137.7180  162.9039 C.ar    1  UNL1       -0.0017
     21 C         139.4780  137.8219  162.6372 C.ar    1  UNL1       -0.0017
     22 C         138.9881  138.1949  161.2693 C.ar    1  UNL1        0.0120
     23 C         139.9706  138.4639  160.1683 C.ar    1  UNL1        0.0682
     24 CL        139.4806  138.8368  158.8005 Cl      1  UNL1       -0.0814
     25 C         141.4430  138.3600  160.4350 C.ar    1  UNL1        0.0679
     26 CL        142.4255  138.6290  159.3340 Cl      1  UNL1       -0.0814
     27 C         141.9330  137.9870  161.8028 C.ar    1  UNL1        0.0096
@<TRIPOS>BOND
     1     1     2    1
     2     2     3   ar
     3     3     4   ar
     4     4     5   ar
     5     5     6    1
     6     5     7   ar
     7     7     8   ar
     8     8    15    1
     9    15    16    2
    10    15    17   am
    11    17    19    1
    12    19    20    1
    13    20    21   ar
    14    21    22   ar
    15    22    23   ar
    16    23    24    1
    17    23    25   ar
    18    25    26    1
    19    25    27   ar
    20     8     9   ar
    21     9    10   ar
    22    10    11   ar
    23    11     2   ar
    24    10     4   ar
    25    27    20   ar
    26     1    12    1
    27     1    13    1
    28     6    14    1
    29    17    18    1
@<TRIPOS>MOLECULE
*****
 27 29 0 0 0
SMALL
GASTEIGER

@<TRIPOS>ATOM
      1 N         138.9707  143.5900  171.5646 N.pl3   1  UNL1       -0.3375
      2 C         139.8349  142.8015  170.6256 C.ar    1  UNL1        0.1568
      3 N         140.3886  141.4305  170.8780 N.ar    1  UNL1       -0.2214
      4 C         141.1929  141.0272  169.6778 C.ar    1  UNL1        0.1227
      5 C         141.9695  139.7835  169.3618 C.ar    1  UNL1        0.1518
      6 O         142.0261  138.6617  170.3560 O.3     1  UNL1       -0.5040
      7 C         142.6896  139.6615  168.0516 C.ar    1  UNL1        0.0427
      8 C         142.6330  140.7833  167.0574 C.ar    1  UNL1        0.0570
      9 C         141.8563  142.0271  167.3735 C.ar    1  UNL1        0.0128
     10 C         141.1363  142.1490  168.6837 C.ar    1  UNL1        0.0528
     11 S         140.2970  143.2455  169.2695 S.2     1  UNL1       -0.0519
     12 H         138.7193  143.2111  172.4378 H       1  UNL1        0.1442
     13 H         138.6550  144.4864  171.3076 H       1  UNL1        0.1442
     14 H         141.5764  138.7378  171.1744 H       1  UNL1        0.2923
     15 C         143.3531  140.6613  165.7472 C.2     1  UNL1        0.2462
     16 O         143.5817  141.8785  164.9009 O.2     1  UNL1       -0.2701
     17 N         143.8444  139.3222  165.2833 N.am    1  UNL1       -0.2969
     18 H         143.6944  138.5233  165.8388 H       1  UNL1        0.1501
     19 C         144.5645  139.2002  163.9731 C.3     1  UNL1        0.1166
     20 C         143.7884  138.9813  162.7083 C.ar    1  UNL1       -0.0017
     21 C         142.5850  138.0859  162.7122 C.ar    1  UNL1       -0.0017
     22 C         141.8089  137.8670  161.4474 C.ar    1  UNL1        0.0120
     23 C         142.2362  138.5435  160.1786 C.ar    1  UNL1        0.0682
     24 CL        141.4601  138.3246  158.9139 Cl      1  UNL1       -0.0814
     25 C         143.4396  139.4389  160.1747 C.ar    1  UNL1        0.0679
     26 CL        143.8670  140.1154  158.9060 Cl      1  UNL1       -0.0814
     27 C         144.2157  139.6578  161.4395 C.ar    1  UNL1        0.0096
@<TRIPOS>BOND
     1     1     2    1
     2     2     3   ar
     3     3     4   ar
     4     4     5   ar
     5     5     6    1
     6     5     7   ar
     7     7     8   ar
     8     8    15    1
     9    15    16    2
    10    15    17   am
    11    17    19    1
    12    19    20    1
    13    20    21   ar
    14    21    22   ar
    15    22    23   ar
    16    23    24    1
    17    23    25   ar
    18    25    26    1
    19    25    27   ar
    20     8     9   ar
    21     9    10   ar
    22    10    11   ar
    23    11     2   ar
    24    10     4   ar
    25    27    20   ar
    26     1    12    1
    27     1    13    1
    28     6    14    1
    29    17    18    1
@<TRIPOS>MOLECULE
*****
 27 29 0 0 0
SMALL
GASTEIGER

@<TRIPOS>ATOM
      1 N         143.7953  139.5072  171.4607 N.pl3   1  UNL1       -0.3375
      2 C         142.9383  140.2514  170.4801 C.ar    1  UNL1        0.1568
      3 N         142.3041  141.5923  170.7033 N.ar    1  UNL1       -0.2214
      4 C         141.5388  141.9551  169.4653 C.ar    1  UNL1        0.1227
      5 C         140.7161  143.1579  169.1103 C.ar    1  UNL1        0.1518
      6 O         140.5549  144.2747  170.0987 O.3     1  UNL1       -0.5040
      7 C         140.0544  143.2441  167.7668 C.ar    1  UNL1        0.0427
      8 C         140.2155  142.1274  166.7784 C.ar    1  UNL1        0.0570
      9 C         141.0384  140.9245  167.1335 C.ar    1  UNL1        0.0128
     10 C         141.7000  140.8383  168.4769 C.ar    1  UNL1        0.0528
     11 S         142.5649  139.7854  169.1041 S.2     1  UNL1       -0.0519
     12 H         143.9850  139.8977  172.3444 H       1  UNL1        0.1442
     13 H         144.1682  138.6282  171.2207 H       1  UNL1        0.1442
     14 H         140.9682  144.2209  170.9379 H       1  UNL1        0.2923
     15 C         139.5539  142.2135  165.4350 C.2     1  UNL1        0.2462
     16 O         139.7940  141.1443  164.4108 O.2     1  UNL1       -0.2701
     17 N         138.6522  143.3689  165.1159 N.am    1  UNL1       -0.2969
     18 H         138.4946  144.0707  165.7881 H       1  UNL1        0.1501
     19 C         137.9905  143.4551  163.7724 C.3     1  UNL1        0.1166
     20 C         138.7576  143.9687  162.5901 C.ar    1  UNL1       -0.0017
     21 C         139.2741  145.3769  162.5854 C.ar    1  UNL1       -0.0017
     22 C         140.0412  145.8905  161.4031 C.ar    1  UNL1        0.0120
     23 C         140.2917  144.9958  160.2255 C.ar    1  UNL1        0.0682
     24 CL        141.0588  145.5094  159.0432 Cl      1  UNL1       -0.0814
     25 C         139.7752  143.5875  160.2302 C.ar    1  UNL1        0.0679
     26 CL        140.0257  142.6929  159.0526 Cl      1  UNL1       -0.0814
     27 C         139.0081  143.0740  161.4124 C.ar    1  UNL1        0.0096
@<TRIPOS>BOND
     1     1     2    1
     2     2     3   ar
     3     3     4   ar
     4     4     5   ar
     5     5     6    1
     6     5     7   ar
     7     7     8   ar
     8     8    15    1
     9    15    16    2
    10    15    17   am
    11    17    19    1
    12    19    20    1
    13    20    21   ar
    14    21    22   ar
    15    22    23   ar
    16    23    24    1
    17    23    25   ar
    18    25    26    1
    19    25    27   ar
    20     8     9   ar
    21     9    10   ar
    22    10    11   ar
    23    11     2   ar
    24    10     4   ar
    25    27    20   ar
    26     1    12    1
    27     1    13    1
    28     6    14    1
    29    17    18    1
@<TRIPOS>MOLECULE
*****
 27 29 0 0 0
SMALL
GASTEIGER

@<TRIPOS>ATOM
      1 N         137.7252  139.6350  170.5427 N.pl3   1  UNL1       -0.3375
      2 C         138.9667  140.2510  169.9690 C.ar    1  UNL1        0.1568
      3 N         140.0049  141.0175  170.7335 N.ar    1  UNL1       -0.2214
      4 C         141.0678  141.4490  169.7671 C.ar    1  UNL1        0.1227
      5 C         142.3336  142.2324  169.9512 C.ar    1  UNL1        0.1518
      6 O         142.7150  142.7322  171.3131 O.3     1  UNL1       -0.5040
      7 C         143.2182  142.5161  168.7733 C.ar    1  UNL1        0.0427
      8 C         142.8368  142.0162  167.4114 C.ar    1  UNL1        0.0570
      9 C         141.5710  141.2328  167.2274 C.ar    1  UNL1        0.0128
     10 C         140.6865  140.9492  168.4052 C.ar    1  UNL1        0.0528
     11 S         139.3879  140.2088  168.5300 S.2     1  UNL1       -0.0519
     12 H         137.5345  139.7169  171.5051 H       1  UNL1        0.1442
     13 H         137.1010  139.1487  169.9569 H       1  UNL1        0.1442
     14 H         142.1625  142.5550  172.0488 H       1  UNL1        0.2923
     15 C         143.7213  142.2999  166.2336 C.2     1  UNL1        0.2462
     16 O         144.4239  143.6206  166.1241 O.2     1  UNL1       -0.2701
     17 N         143.9032  141.2627  165.1654 N.am    1  UNL1       -0.2969
     18 H         143.4421  140.3958  165.2373 H       1  UNL1        0.1501
     19 C         144.7877  141.5463  163.9875 C.3     1  UNL1        0.1166
     20 C         144.4264  141.0134  162.6328 C.ar    1  UNL1       -0.0017
     21 C         144.1581  139.5490  162.4499 C.ar    1  UNL1       -0.0017
     22 C         143.7968  139.0161  161.0951 C.ar    1  UNL1        0.0120
     23 C         143.7037  139.9477  159.9231 C.ar    1  UNL1        0.0682
     24 CL        143.3424  139.4148  158.5684 Cl      1  UNL1       -0.0814
     25 C         143.9719  141.4121  160.1060 C.ar    1  UNL1        0.0679
     26 CL        143.8789  142.3437  158.9341 Cl      1  UNL1       -0.0814
     27 C         144.3333  141.9450  161.4608 C.ar    1  UNL1        0.0096
@<TRIPOS>BOND
     1     1     2    1
     2     2     3   ar
     3     3     4   ar
     4     4     5   ar
     5     5     6    1
     6     5     7   ar
     7     7     8   ar
     8     8    15    1
     9    15    16    2
    10    15    17   am
    11    17    19    1
    12    19    20    1
    13    20    21   ar
    14    21    22   ar
    15    22    23   ar
    16    23    24    1
    17    23    25   ar
    18    25    26    1
    19    25    27   ar
    20     8     9   ar
    21     9    10   ar
    22    10    11   ar
    23    11     2   ar
    24    10     4   ar
    25    27    20   ar
    26     1    12    1
    27     1    13    1
    28     6    14    1
    29    17    18    1
@<TRIPOS>MOLECULE
*****
 27 29 0 0 0
SMALL
GASTEIGER

@<TRIPOS>ATOM
      1 N         137.6138  139.4432  170.7067 N.pl3   1  UNL1       -0.3375
      2 C         138.8093  140.1151  170.0991 C.ar    1  UNL1        0.1568
      3 N         139.8903  140.8371  170.8477 N.ar    1  UNL1       -0.2214
      4 C         140.8828  141.3513  169.8474 C.ar    1  UNL1        0.1227
      5 C         142.1519  142.1353  170.0046 C.ar    1  UNL1        0.1518
      6 O         142.6194  142.5394  171.3714 O.3     1  UNL1       -0.5040
      7 C         142.9535  142.5152  168.7950 C.ar    1  UNL1        0.0427
      8 C         142.4860  142.1111  167.4282 C.ar    1  UNL1        0.0570
      9 C         141.2169  141.3270  167.2711 C.ar    1  UNL1        0.0128
     10 C         140.4153  140.9472  168.4806 C.ar    1  UNL1        0.0528
     11 S         139.1338  140.1832  168.6362 S.2     1  UNL1       -0.0519
     12 H         137.4872  139.4524  171.6830 H       1  UNL1        0.1442
     13 H         136.9558  138.9929  170.1292 H       1  UNL1        0.1442
     14 H         142.1187  142.3021  172.1270 H       1  UNL1        0.2923
     15 C         143.2876  142.4910  166.2186 C.2     1  UNL1        0.2462
     16 O         144.4717  143.4010  166.3590 O.2     1  UNL1       -0.2701
     17 N         142.9050  141.9608  164.8686 N.am    1  UNL1       -0.2969
     18 H         142.1278  141.3635  164.7765 H       1  UNL1        0.1501
     19 C         143.7066  142.3407  163.6589 C.3     1  UNL1        0.1166
     20 C         143.0448  143.0442  162.5113 C.ar    1  UNL1       -0.0017
     21 C         143.4109  142.6873  161.1011 C.ar    1  UNL1       -0.0017
     22 C         142.7491  143.3909  159.9535 C.ar    1  UNL1        0.0120
     23 C         141.7212  144.4512  160.2160 C.ar    1  UNL1        0.0682
     24 CL        141.0594  145.1547  159.0684 Cl      1  UNL1       -0.0814
     25 C         141.3550  144.8081  161.6262 C.ar    1  UNL1        0.0679
     26 CL        140.3271  145.8684  161.8888 Cl      1  UNL1       -0.0814
     27 C         142.0168  144.1046  162.7738 C.ar    1  UNL1        0.0096
@<TRIPOS>BOND
     1     1     2    1
     2     2     3   ar
     3     3     4   ar
     4     4     5   ar
     5     5     6    1
     6     5     7   ar
     7     7     8   ar
     8     8    15    1
     9    15    16    2
    10    15    17   am
    11    17    19    1
    12    19    20    1
    13    20    21   ar
    14    21    22   ar
    15    22    23   ar
    16    23    24    1
    17    23    25   ar
    18    25    26    1
    19    25    27   ar
    20     8     9   ar
    21     9    10   ar
    22    10    11   ar
    23    11     2   ar
    24    10     4   ar
    25    27    20   ar
    26     1    12    1
    27     1    13    1
    28     6    14    1
    29    17    18    1
@<TRIPOS>MOLECULE
*****
 27 29 0 0 0
SMALL
GASTEIGER

@<TRIPOS>ATOM
      1 N         140.4562  141.3369  171.2546 N.pl3   1  UNL1       -0.3375
      2 C         139.9903  140.9123  169.8935 C.ar    1  UNL1        0.1568
      3 N         139.0037  139.8213  169.6000 N.ar    1  UNL1       -0.2214
      4 C         138.8328  139.7388  168.1120 C.ar    1  UNL1        0.1227
      5 C         137.9887  138.8510  167.2463 C.ar    1  UNL1        0.1518
      6 O         137.1077  137.8110  167.8724 O.3     1  UNL1       -0.5040
      7 C         138.0257  139.0033  165.7545 C.ar    1  UNL1        0.0427
      8 C         138.9068  140.0434  165.1284 C.ar    1  UNL1        0.0570
      9 C         139.7508  140.9312  165.9942 C.ar    1  UNL1        0.0128
     10 C         139.7138  140.7789  167.4859 C.ar    1  UNL1        0.0528
     11 S         140.4292  141.5041  168.5870 S.2     1  UNL1       -0.0519
     12 H         140.1084  140.8851  172.0572 H       1  UNL1        0.1442
     13 H         141.1099  142.0674  171.3454 H       1  UNL1        0.1442
     14 H         137.0846  137.7158  168.8043 H       1  UNL1        0.2923
     15 C         138.9438  140.1957  163.6367 C.2     1  UNL1        0.2462
     16 O         140.0650  139.5865  162.8481 O.2     1  UNL1       -0.2701
     17 N         137.8596  140.9573  162.9334 N.am    1  UNL1       -0.2969
     18 H         137.1238  141.3572  163.4510 H       1  UNL1        0.1501
     19 C         137.8966  141.1097  161.4416 C.3     1  UNL1        0.1166
     20 C         138.6549  142.2461  160.8223 C.ar    1  UNL1       -0.0017
     21 C         138.8387  142.3028  159.3347 C.ar    1  UNL1       -0.0017
     22 C         139.5970  143.4393  158.7155 C.ar    1  UNL1        0.0120
     23 C         140.1715  144.5190  159.5838 C.ar    1  UNL1        0.0682
     24 CL        140.9298  145.6554  158.9645 Cl      1  UNL1       -0.0814
     25 C         139.9878  144.4623  161.0714 C.ar    1  UNL1        0.0679
     26 CL        140.5623  145.5420  161.9398 Cl      1  UNL1       -0.0814
     27 C         139.2295  143.3259  161.6907 C.ar    1  UNL1        0.0096
@<TRIPOS>BOND
     1     1     2    1
     2     2     3   ar
     3     3     4   ar
     4     4     5   ar
     5     5     6    1
     6     5     7   ar
     7     7     8   ar
     8     8    15    1
     9    15    16    2
    10    15    17   am
    11    17    19    1
    12    19    20    1
    13    20    21   ar
    14    21    22   ar
    15    22    23   ar
    16    23    24    1
    17    23    25   ar
    18    25    26    1
    19    25    27   ar
    20     8     9   ar
    21     9    10   ar
    22    10    11   ar
    23    11     2   ar
    24    10     4   ar
    25    27    20   ar
    26     1    12    1
    27     1    13    1
    28     6    14    1
    29    17    18    1
