@<TRIPOS>MOLECULE
*****
 31 35 0 0 0
SMALL
GASTEIGER

@<TRIPOS>ATOM
      1 N         140.8687  139.9813  166.8387 N.pl3   1  UNL1       -0.3033
      2 H         140.6591  139.1447  166.3640 H       1  UNL1        0.1496
      3 C         141.2537  141.2068  166.0641 C.ar    1  UNL1        0.2359
      4 N         140.3182  142.2766  165.5843 N.ar    1  UNL1       -0.1904
      5 C         141.1281  143.3087  164.8570 C.ar    1  UNL1        0.2007
      6 C         140.7435  144.5859  164.1710 C.ar    1  UNL1        0.1747
      7 C         141.7949  145.4312  163.5154 C.ar    1  UNL1        0.0417
      8 C         143.2311  144.9993  163.5458 C.ar    1  UNL1        0.0240
      9 C         143.6157  143.7220  164.2318 C.ar    1  UNL1        0.1024
     10 N         142.5643  142.8767  164.8873 N.ar    1  UNL1       -0.2053
     11 N         142.6419  141.5777  165.6334 N.ar    1  UNL1       -0.1283
     12 O         139.3073  145.0179  164.1407 O.3     1  UNL1       -0.4635
     13 C         138.4137  144.5725  163.0214 C.3     1  UNL1        0.3082
     14 C         137.6607  143.2799  163.1319 C.3     1  UNL1        0.4380
     15 F         136.9077  141.9873  163.2424 F       1  UNL1       -0.1663
     16 F         137.5471  143.4728  164.6151 F       1  UNL1       -0.1663
     17 F         137.7743  143.0869  161.6487 F       1  UNL1       -0.1663
     18 N         140.9482  139.9797  166.9741 N.pl3   1  UNL1       -0.3014
     19 C         139.6208  140.0942  167.6633 C.3     1  UNL1        0.0929
     20 C         139.5551  140.1434  169.1611 C.3     1  UNL1        0.0378
     21 C         139.9546  140.1582  170.6068 C.3     1  UNL1        0.0035
     22 C         141.4495  140.0545  170.6758 C.3     1  UNL1        0.0035
     23 C         141.9739  139.9756  169.2725 C.3     1  UNL1        0.0378
     24 C         142.2099  139.9145  167.7827 C.3     1  UNL1        0.0929
     25 C         140.8031  140.0306  168.3364 C.3     1  UNL1        0.0750
     26 C         139.6173  140.3157  161.8754 C.3     1  UNL1        0.0528
     27 C         140.4021  140.0849  163.1327 C.ar    1  UNL1        0.0690
     28 C         139.8992  140.2740  164.5331 C.ar    1  UNL1        0.0380
     29 C         141.0139  139.9305  165.4763 C.ar    1  UNL1        0.0974
     30 S         142.2057  139.5291  164.6587 S.2     1  UNL1        0.0274
     31 N         141.8276  139.6246  163.2103 N.ar    1  UNL1       -0.2122
@<TRIPOS>BOND
     1    26    27    1
     2    27    28   ar
     3    28    29   ar
     4    29    18    1
     5    18    19    1
     6    20    19    1
     7    20    21    1
     8    21    22    1
     9    23    22    1
    10    23    24    1
    11    23    25    1
    12    25     1    1
    13     1     3    1
    14     3     4   ar
    15     4     5   ar
    16     5     6   ar
    17     6    12    1
    18    12    13    1
    19    13    14    1
    20    14    15    1
    21    14    16    1
    22    14    17    1
    23     6     7   ar
    24     7     8   ar
    25     8     9   ar
    26     9    10   ar
    27    10    11   ar
    28    29    30   ar
    29    30    31   ar
    30    31    27   ar
    31    24    18    1
    32    11     3   ar
    33    25    20    1
    34    10     5   ar
    35     1     2    1
@<TRIPOS>MOLECULE
*****
 31 35 0 0 0
SMALL
GASTEIGER

@<TRIPOS>ATOM
      1 N         141.1601  139.7469  166.8181 N.pl3   1  UNL1       -0.3033
      2 H         141.1868  138.8479  166.4176 H       1  UNL1        0.1496
      3 C         141.6455  140.9312  166.0360 C.ar    1  UNL1        0.2359
      4 N         140.8692  141.6757  164.9906 N.ar    1  UNL1       -0.1904
      5 C         141.7364  142.7836  164.4704 C.ar    1  UNL1        0.2007
      6 C         141.5006  143.8391  163.4311 C.ar    1  UNL1        0.1747
      7 C         142.5772  144.8348  163.1157 C.ar    1  UNL1        0.0417
      8 C         143.8895  144.7750  163.8397 C.ar    1  UNL1        0.0240
      9 C         144.1253  143.7195  164.8790 C.ar    1  UNL1        0.1024
     10 N         143.0488  142.7238  165.1944 N.ar    1  UNL1       -0.2053
     11 N         142.9926  141.5789  166.1619 N.ar    1  UNL1       -0.1283
     12 O         140.1882  143.8990  162.7072 O.3     1  UNL1       -0.4635
     13 C         139.1449  144.8917  163.1266 C.3     1  UNL1        0.3082
     14 C         138.1494  144.5299  164.1887 C.3     1  UNL1        0.4380
     15 F         137.1540  144.1682  165.2509 F       1  UNL1       -0.1663
     16 F         137.3052  143.8360  163.1613 F       1  UNL1       -0.1663
     17 F         138.9936  145.2239  165.2162 F       1  UNL1       -0.1663
     18 N         141.1932  139.7550  166.9714 N.pl3   1  UNL1       -0.3014
     19 C         139.7260  139.9711  167.1961 C.3     1  UNL1        0.0929
     20 C         139.1998  140.1564  168.5886 C.3     1  UNL1        0.0378
     21 C         139.1290  140.2886  170.0811 C.3     1  UNL1        0.0035
     22 C         140.5195  140.1460  170.6255 C.3     1  UNL1        0.0035
     23 C         141.4496  139.9257  169.4694 C.3     1  UNL1        0.0378
     24 C         142.1343  139.7242  168.1391 C.3     1  UNL1        0.0929
     25 C         140.6340  139.9321  168.2105 C.3     1  UNL1        0.0750
     26 C         144.4815  139.1407  162.8859 C.3     1  UNL1        0.0528
     27 C         143.2309  139.2874  163.7011 C.ar    1  UNL1        0.0690
     28 C         143.1641  139.4653  165.1890 C.ar    1  UNL1        0.0380
     29 C         141.7194  139.5697  165.5789 C.ar    1  UNL1        0.0974
     30 S         140.8933  139.4562  164.3321 S.2     1  UNL1        0.0274
     31 N         141.8275  139.2817  163.1715 N.ar    1  UNL1       -0.2122
@<TRIPOS>BOND
     1    26    27    1
     2    27    28   ar
     3    28    29   ar
     4    29    18    1
     5    18    19    1
     6    20    19    1
     7    20    21    1
     8    21    22    1
     9    23    22    1
    10    23    24    1
    11    23    25    1
    12    25     1    1
    13     1     3    1
    14     3     4   ar
    15     4     5   ar
    16     5     6   ar
    17     6    12    1
    18    12    13    1
    19    13    14    1
    20    14    15    1
    21    14    16    1
    22    14    17    1
    23     6     7   ar
    24     7     8   ar
    25     8     9   ar
    26     9    10   ar
    27    10    11   ar
    28    29    30   ar
    29    30    31   ar
    30    31    27   ar
    31    24    18    1
    32    11     3   ar
    33    25    20    1
    34    10     5   ar
    35     1     2    1
@<TRIPOS>MOLECULE
*****
 31 35 0 0 0
SMALL
GASTEIGER

@<TRIPOS>ATOM
      1 N         138.5612  140.3560  163.2521 N.pl3   1  UNL1       -0.3033
      2 H         137.9024  140.3215  162.5213 H       1  UNL1        0.1496
      3 C         139.6076  141.4306  163.2684 C.ar    1  UNL1        0.2359
      4 N         140.9670  141.3472  162.6398 N.ar    1  UNL1       -0.1904
      5 C         141.6779  142.6423  162.8991 C.ar    1  UNL1        0.2007
      6 C         143.0441  143.1310  162.5188 C.ar    1  UNL1        0.1747
      7 C         143.4903  144.5036  162.9273 C.ar    1  UNL1        0.0417
      8 C         142.5703  145.3875  163.7161 C.ar    1  UNL1        0.0240
      9 C         141.2040  144.8988  164.0964 C.ar    1  UNL1        0.1024
     10 N         140.7579  143.5263  163.6879 N.ar    1  UNL1       -0.2053
     11 N         139.4784  142.7774  163.9161 N.ar    1  UNL1       -0.1283
     12 O         143.9642  142.2471  161.7300 O.3     1  UNL1       -0.4635
     13 C         145.2944  141.8512  162.2989 C.3     1  UNL1        0.3082
     14 C         145.3617  140.9035  163.4597 C.3     1  UNL1        0.4380
     15 F         145.4289  139.9557  164.6204 F       1  UNL1       -0.1663
     16 F         146.0338  141.9610  164.2842 F       1  UNL1       -0.1663
     17 F         144.6895  139.8460  162.6351 F       1  UNL1       -0.1663
     18 N         138.5297  140.3260  163.4030 N.pl3   1  UNL1       -0.3014
     19 C         138.9300  138.9078  163.1227 C.3     1  UNL1        0.0929
     20 C         138.8874  137.8857  164.2198 C.3     1  UNL1        0.0378
     21 C         138.6964  137.2374  165.5589 C.3     1  UNL1        0.0035
     22 C         138.2096  138.2849  166.5159 C.3     1  UNL1        0.0035
     23 C         138.0997  139.5807  165.7682 C.3     1  UNL1        0.0378
     24 C         138.0869  140.7221  164.7803 C.3     1  UNL1        0.0929
     25 C         138.5186  139.3340  164.3492 C.3     1  UNL1        0.0750
     26 C         139.6605  142.7787  158.8657 C.3     1  UNL1        0.0528
     27 C         139.0922  142.4755  160.2203 C.ar    1  UNL1        0.0690
     28 C         139.3323  141.2282  161.0182 C.ar    1  UNL1        0.0380
     29 C         138.5724  141.3481  162.3059 C.ar    1  UNL1        0.0974
     30 S         137.8626  142.6695  162.3039 S.2     1  UNL1        0.0274
     31 N         138.1838  143.3663  161.0150 N.ar    1  UNL1       -0.2122
@<TRIPOS>BOND
     1    26    27    1
     2    27    28   ar
     3    28    29   ar
     4    29    18    1
     5    18    19    1
     6    20    19    1
     7    20    21    1
     8    21    22    1
     9    23    22    1
    10    23    24    1
    11    23    25    1
    12    25     1    1
    13     1     3    1
    14     3     4   ar
    15     4     5   ar
    16     5     6   ar
    17     6    12    1
    18    12    13    1
    19    13    14    1
    20    14    15    1
    21    14    16    1
    22    14    17    1
    23     6     7   ar
    24     7     8   ar
    25     8     9   ar
    26     9    10   ar
    27    10    11   ar
    28    29    30   ar
    29    30    31   ar
    30    31    27   ar
    31    24    18    1
    32    11     3   ar
    33    25    20    1
    34    10     5   ar
    35     1     2    1
@<TRIPOS>MOLECULE
*****
 31 35 0 0 0
SMALL
GASTEIGER

@<TRIPOS>ATOM
      1 N         140.9279  139.8604  166.4042 N.pl3   1  UNL1       -0.3033
      2 H         140.3078  139.2163  165.9918 H       1  UNL1        0.1496
      3 C         141.6033  140.8984  165.5578 C.ar    1  UNL1        0.2359
      4 N         141.0715  142.2664  165.2486 N.ar    1  UNL1       -0.1904
      5 C         142.0687  142.9642  164.3718 C.ar    1  UNL1        0.2007
      6 C         142.0795  144.3315  163.7552 C.ar    1  UNL1        0.1747
      7 C         143.2385  144.7620  162.9059 C.ar    1  UNL1        0.0417
      8 C         144.3867  143.8252  162.6733 C.ar    1  UNL1        0.0240
      9 C         144.3759  142.4579  163.2899 C.ar    1  UNL1        0.1024
     10 N         143.2168  142.0274  164.1391 N.ar    1  UNL1       -0.2053
     11 N         142.9292  140.7507  164.8722 N.ar    1  UNL1       -0.1283
     12 O         140.9313  145.2683  163.9878 O.3     1  UNL1       -0.4635
     13 C         139.6070  145.0085  163.3332 C.3     1  UNL1        0.3082
     14 C         138.4441  144.5362  164.1547 C.3     1  UNL1        0.4380
     15 F         137.2813  144.0640  164.9762 F       1  UNL1       -0.1663
     16 F         139.1347  145.0042  165.4013 F       1  UNL1       -0.1663
     17 F         137.7535  144.0682  162.9081 F       1  UNL1       -0.1663
     18 N         141.0321  139.8316  166.5180 N.pl3   1  UNL1       -0.3014
     19 C         139.9419  140.1646  167.4928 C.3     1  UNL1        0.0929
     20 C         140.2111  140.1078  168.9674 C.3     1  UNL1        0.0378
     21 C         140.9042  139.9248  170.2850 C.3     1  UNL1        0.0035
     22 C         142.3187  139.5075  170.0107 C.3     1  UNL1        0.0035
     23 C         142.4997  139.4325  168.5234 C.3     1  UNL1        0.0378
     24 C         142.3917  139.4418  167.0176 C.3     1  UNL1        0.0929
     25 C         141.1971  139.8035  167.8787 C.3     1  UNL1        0.0750
     26 C         138.9373  141.1038  161.8410 C.3     1  UNL1        0.0528
     27 C         139.8000  140.4732  162.8936 C.ar    1  UNL1        0.0690
     28 C         139.7171  140.7265  164.3697 C.ar    1  UNL1        0.0380
     29 C         140.7629  139.8884  165.0434 C.ar    1  UNL1        0.0974
     30 S         141.4922  139.1171  163.9836 S.2     1  UNL1        0.0274
     31 N         140.8971  139.4785  162.6550 N.ar    1  UNL1       -0.2122
@<TRIPOS>BOND
     1    26    27    1
     2    27    28   ar
     3    28    29   ar
     4    29    18    1
     5    18    19    1
     6    20    19    1
     7    20    21    1
     8    21    22    1
     9    23    22    1
    10    23    24    1
    11    23    25    1
    12    25     1    1
    13     1     3    1
    14     3     4   ar
    15     4     5   ar
    16     5     6   ar
    17     6    12    1
    18    12    13    1
    19    13    14    1
    20    14    15    1
    21    14    16    1
    22    14    17    1
    23     6     7   ar
    24     7     8   ar
    25     8     9   ar
    26     9    10   ar
    27    10    11   ar
    28    29    30   ar
    29    30    31   ar
    30    31    27   ar
    31    24    18    1
    32    11     3   ar
    33    25    20    1
    34    10     5   ar
    35     1     2    1
@<TRIPOS>MOLECULE
*****
 31 35 0 0 0
SMALL
GASTEIGER

@<TRIPOS>ATOM
      1 N         141.8487  140.8383  166.4496 N.pl3   1  UNL1       -0.3033
      2 H         142.5710  141.4808  166.2634 H       1  UNL1        0.1496
      3 C         140.9800  140.3419  165.3320 C.ar    1  UNL1        0.2359
      4 N         139.7541  141.0224  164.7992 N.ar    1  UNL1       -0.1904
      5 C         139.2012  140.1789  163.6889 C.ar    1  UNL1        0.2007
      6 C         138.0068  140.3499  162.7978 C.ar    1  UNL1        0.1747
      7 C         137.6966  139.3190  161.7533 C.ar    1  UNL1        0.0417
      8 C         138.5809  138.1171  161.5999 C.ar    1  UNL1        0.0240
      9 C         139.7753  137.9461  162.4910 C.ar    1  UNL1        0.1024
     10 N         140.0854  138.9770  163.5355 N.ar    1  UNL1       -0.2053
     11 N         141.1848  139.0777  164.5510 N.ar    1  UNL1       -0.1283
     12 O         137.1225  141.5518  162.9512 O.3     1  UNL1       -0.4635
     13 C         137.6569  142.9198  162.6466 C.3     1  UNL1        0.3082
     14 C         137.8668  143.9072  163.7561 C.3     1  UNL1        0.4380
     15 F         138.0768  144.8946  164.8655 F       1  UNL1       -0.1663
     16 F         137.2834  142.9316  164.7347 F       1  UNL1       -0.1663
     17 F         138.4503  144.8828  162.7774 F       1  UNL1       -0.1663
     18 N         141.7543  140.8386  166.5751 N.pl3   1  UNL1       -0.3014
     19 C         142.7634  139.9491  167.2386 C.3     1  UNL1        0.0929
     20 C         142.5315  139.4666  168.6399 C.3     1  UNL1        0.0378
     21 C         141.9095  139.2390  169.9857 C.3     1  UNL1        0.0035
     22 C         140.6104  139.9877  170.0285 C.3     1  UNL1        0.0035
     23 C         140.4295  140.6779  168.7090 C.3     1  UNL1        0.0378
     24 C         140.5132  141.2457  167.3127 C.3     1  UNL1        0.0929
     25 C         141.6168  140.3558  167.8508 C.3     1  UNL1        0.0750
     26 C         141.5273  143.7128  162.1514 C.3     1  UNL1        0.0528
     27 C         141.8818  142.6423  163.1405 C.ar    1  UNL1        0.0690
     28 C         141.3763  142.5409  164.5491 C.ar    1  UNL1        0.0380
     29 C         141.9861  141.3211  165.1738 C.ar    1  UNL1        0.0974
     30 S         142.8685  140.6686  164.1513 S.2     1  UNL1        0.0274
     31 N         142.8040  141.4850  162.8946 N.ar    1  UNL1       -0.2122
@<TRIPOS>BOND
     1    26    27    1
     2    27    28   ar
     3    28    29   ar
     4    29    18    1
     5    18    19    1
     6    20    19    1
     7    20    21    1
     8    21    22    1
     9    23    22    1
    10    23    24    1
    11    23    25    1
    12    25     1    1
    13     1     3    1
    14     3     4   ar
    15     4     5   ar
    16     5     6   ar
    17     6    12    1
    18    12    13    1
    19    13    14    1
    20    14    15    1
    21    14    16    1
    22    14    17    1
    23     6     7   ar
    24     7     8   ar
    25     8     9   ar
    26     9    10   ar
    27    10    11   ar
    28    29    30   ar
    29    30    31   ar
    30    31    27   ar
    31    24    18    1
    32    11     3   ar
    33    25    20    1
    34    10     5   ar
    35     1     2    1
@<TRIPOS>MOLECULE
*****
 31 35 0 0 0
SMALL
GASTEIGER

@<TRIPOS>ATOM
      1 N         142.9214  141.3969  166.6690 N.pl3   1  UNL1       -0.3033
      2 H         143.8384  141.5141  166.3305 H       1  UNL1        0.1496
      3 C         141.7521  141.8146  165.8274 C.ar    1  UNL1        0.2359
      4 N         141.0806  140.9822  164.7757 N.ar    1  UNL1       -0.1904
      5 C         139.9625  141.7912  164.1881 C.ar    1  UNL1        0.2007
      6 C         138.9597  141.4867  163.1150 C.ar    1  UNL1        0.1747
      7 C         137.9373  142.5147  162.7304 C.ar    1  UNL1        0.0417
      8 C         137.9177  143.8472  163.4190 C.ar    1  UNL1        0.0240
      9 C         138.9205  144.1517  164.4921 C.ar    1  UNL1        0.1024
     10 N         139.9429  143.1237  164.8766 N.ar    1  UNL1       -0.2053
     11 N         141.0489  143.1381  165.8898 N.ar    1  UNL1       -0.1283
     12 O         138.9792  140.1543  162.4264 O.3     1  UNL1       -0.4635
     13 C         138.2157  138.9999  163.0047 C.3     1  UNL1        0.3082
     14 C         138.8498  138.1287  164.0482 C.3     1  UNL1        0.4380
     15 F         139.4839  137.2575  165.0917 F       1  UNL1       -0.1663
     16 F         139.4725  137.2913  162.9707 F       1  UNL1       -0.1663
     17 F         138.2272  138.9661  165.1257 F       1  UNL1       -0.1663
     18 N         142.8882  141.2680  166.7524 N.pl3   1  UNL1       -0.3014
     19 C         142.9747  142.1322  167.9753 C.3     1  UNL1        0.0929
     20 C         142.7468  141.5360  169.3328 C.3     1  UNL1        0.0378
     21 C         142.4586  140.5541  170.4295 C.3     1  UNL1        0.0035
     22 C         142.2272  139.2119  169.8011 C.3     1  UNL1        0.0035
     23 C         142.3724  139.3642  168.3158 C.3     1  UNL1        0.0378
     24 C         142.5738  139.8075  166.8868 C.3     1  UNL1        0.0929
     25 C         142.6935  140.8006  168.0264 C.3     1  UNL1        0.0750
     26 C         143.6706  144.7569  162.8669 C.3     1  UNL1        0.0528
     27 C         143.4757  143.4680  163.6090 C.ar    1  UNL1        0.0690
     28 C         143.2646  143.3249  165.0871 C.ar    1  UNL1        0.0380
     29 C         143.1160  141.8643  165.3949 C.ar    1  UNL1        0.0974
     30 S         143.2353  141.1047  164.1070 S.2     1  UNL1        0.0274
     31 N         143.4576  142.0958  163.0032 N.ar    1  UNL1       -0.2122
@<TRIPOS>BOND
     1    26    27    1
     2    27    28   ar
     3    28    29   ar
     4    29    18    1
     5    18    19    1
     6    20    19    1
     7    20    21    1
     8    21    22    1
     9    23    22    1
    10    23    24    1
    11    23    25    1
    12    25     1    1
    13     1     3    1
    14     3     4   ar
    15     4     5   ar
    16     5     6   ar
    17     6    12    1
    18    12    13    1
    19    13    14    1
    20    14    15    1
    21    14    16    1
    22    14    17    1
    23     6     7   ar
    24     7     8   ar
    25     8     9   ar
    26     9    10   ar
    27    10    11   ar
    28    29    30   ar
    29    30    31   ar
    30    31    27   ar
    31    24    18    1
    32    11     3   ar
    33    25    20    1
    34    10     5   ar
    35     1     2    1
@<TRIPOS>MOLECULE
*****
 31 35 0 0 0
SMALL
GASTEIGER

@<TRIPOS>ATOM
      1 N         141.5146  140.8334  167.0555 N.pl3   1  UNL1       -0.3033
      2 H         142.4955  140.7494  167.0510 H       1  UNL1        0.1496
      3 C         140.7216  140.4279  165.8486 C.ar    1  UNL1        0.2359
      4 N         140.2255  141.3452  164.7705 N.ar    1  UNL1       -0.1904
      5 C         139.4827  140.5181  163.7634 C.ar    1  UNL1        0.2007
      6 C         138.7774  140.8812  162.4904 C.ar    1  UNL1        0.1747
      7 C         138.1092  139.8156  161.6730 C.ar    1  UNL1        0.0417
      8 C         138.1463  138.3870  162.1287 C.ar    1  UNL1        0.0240
      9 C         138.8516  138.0239  163.4018 C.ar    1  UNL1        0.1024
     10 N         139.5198  139.0894  164.2191 N.ar    1  UNL1       -0.2053
     11 N         140.2855  139.0337  165.5078 N.ar    1  UNL1       -0.1283
     12 O         138.7404  142.3098  162.0347 O.3     1  UNL1       -0.4635
     13 C         137.7254  143.2538  162.6079 C.3     1  UNL1        0.3082
     14 C         138.1004  144.1591  163.7436 C.3     1  UNL1        0.4380
     15 F         138.4754  145.0644  164.8793 F       1  UNL1       -0.1663
     16 F         137.4965  143.1895  164.7159 F       1  UNL1       -0.1663
     17 F         138.7043  145.1286  162.7713 F       1  UNL1       -0.1663
     18 N         141.4228  140.8021  167.1789 N.pl3   1  UNL1       -0.3014
     19 C         141.5319  142.2565  167.5294 C.3     1  UNL1        0.0929
     20 C         140.8304  142.7901  168.7432 C.3     1  UNL1        0.0378
     21 C         139.9992  142.8739  169.9890 C.3     1  UNL1        0.0035
     22 C         139.4682  141.5026  170.2851 C.3     1  UNL1        0.0035
     23 C         139.9713  140.5713  169.2221 C.3     1  UNL1        0.0378
     24 C         140.6122  139.8813  168.0421 C.3     1  UNL1        0.0929
     25 C         140.8132  141.3670  168.2692 C.3     1  UNL1        0.0750
     26 C         143.8113  140.5173  162.4784 C.3     1  UNL1        0.0528
     27 C         143.2221  140.1376  163.8045 C.ar    1  UNL1        0.0690
     28 C         142.5664  141.0716  164.7779 C.ar    1  UNL1        0.0380
     29 C         142.1242  140.2684  165.9651 C.ar    1  UNL1        0.0974
     30 S         142.5067  138.8380  165.7255 S.2     1  UNL1        0.0274
     31 N         143.1852  138.7571  164.3902 N.ar    1  UNL1       -0.2122
@<TRIPOS>BOND
     1    26    27    1
     2    27    28   ar
     3    28    29   ar
     4    29    18    1
     5    18    19    1
     6    20    19    1
     7    20    21    1
     8    21    22    1
     9    23    22    1
    10    23    24    1
    11    23    25    1
    12    25     1    1
    13     1     3    1
    14     3     4   ar
    15     4     5   ar
    16     5     6   ar
    17     6    12    1
    18    12    13    1
    19    13    14    1
    20    14    15    1
    21    14    16    1
    22    14    17    1
    23     6     7   ar
    24     7     8   ar
    25     8     9   ar
    26     9    10   ar
    27    10    11   ar
    28    29    30   ar
    29    30    31   ar
    30    31    27   ar
    31    24    18    1
    32    11     3   ar
    33    25    20    1
    34    10     5   ar
    35     1     2    1
