@<TRIPOS>MOLECULE
*****
 30 34 0 0 0
SMALL
GASTEIGER

@<TRIPOS>ATOM
      1 C         142.7255  138.0049  159.1473 C.2     1  UNL1        0.3845
      2 N         142.4485  139.1618  158.2338 N.2     1  UNL1        0.1566
      3 O         142.4425  138.9591  156.7476 O.2     1  UNL1       -0.2749
      4 C         142.7133  137.5994  156.1750 C.3     1  UNL1        0.3227
      5 C         142.9902  136.4424  157.0886 C.3     1  UNL1        0.2636
      6 N         142.9963  136.6452  158.5747 N.pl3   1  UNL1       -0.2082
      7 H         143.1780  135.8858  159.1744 H       1  UNL1        0.2928
      8 C         143.2610  135.0827  156.5160 C.ar    1  UNL1        0.1692
      9 C         142.6614  134.5187  155.2621 C.ar    1  UNL1        0.0402
     10 C         143.2088  133.1357  155.0679 C.ar    1  UNL1        0.0374
     11 C         142.9743  132.1035  154.0050 C.ar    1  UNL1        0.0031
     12 C         143.6778  130.7807  154.0761 C.ar    1  UNL1        0.0002
     13 C         144.6158  130.4900  155.2100 C.ar    1  UNL1        0.0031
     14 C         144.8503  131.5221  156.2728 C.ar    1  UNL1        0.0375
     15 C         144.1467  132.8450  156.2017 C.ar    1  UNL1        0.1450
     16 O         144.1790  134.0483  157.0967 O.2     1  UNL1       -0.4537
     17 C         141.6231  137.8562  162.9570 C.ar    1  UNL1        0.2418
     18 N         141.6170  137.6535  161.4707 N.ar    1  UNL1       -0.2028
     19 C         142.7316  138.2076  160.6336 C.ar    1  UNL1        0.1702
     20 C         143.8522  138.9643  161.2827 C.ar    1  UNL1        0.0285
     21 C         143.8584  139.1670  162.7689 C.ar    1  UNL1        0.0241
     22 C         142.7438  138.6130  163.6061 C.ar    1  UNL1        0.1189
     23 N         142.7499  138.8157  165.0923 N.ar    1  UNL1       -0.2826
     24 C         143.7084  138.1922  166.0633 C.ar    1  UNL1        0.1826
     25 N         143.3495  138.6686  167.4396 N.ar    1  UNL1       -0.2280
     26 C         142.1693  139.5866  167.3192 C.ar    1  UNL1        0.0786
     27 C         141.4805  140.2902  168.4508 C.3     1  UNL1        0.0538
     28 C         141.7987  139.6774  165.8685 C.ar    1  UNL1        0.0963
     29 C         139.0917  137.7140  163.5241 C.3     1  UNL1        0.2543
     30 O         140.5086  137.3021  163.7941 O.3     1  UNL1       -0.4551
@<TRIPOS>BOND
     1    29    30    1
     2    30    17    1
     3    17    18   ar
     4    18    19   ar
     5    19     1    1
     6     1     2    2
     7     2     3    1
     8     3     4    1
     9     4     5    1
    10     5     8    1
    11     8     9   ar
    12     9    10   ar
    13    10    11   ar
    14    11    12   ar
    15    12    13   ar
    16    13    14   ar
    17    14    15   ar
    18    15    16   ar
    19     5     6    1
    20    19    20   ar
    21    20    21   ar
    22    21    22   ar
    23    22    23    1
    24    23    24   ar
    25    24    25   ar
    26    25    26   ar
    27    26    27    1
    28    26    28   ar
    29    22    17   ar
    30    28    23   ar
    31     6     1    1
    32    16     8   ar
    33    15    10   ar
    34     6     7    1
@<TRIPOS>MOLECULE
*****
 30 34 0 0 0
SMALL
GASTEIGER

@<TRIPOS>ATOM
      1 C         143.2486  138.3735  159.5175 C.2     1  UNL1        0.3845
      2 N         143.6048  139.5301  158.6312 N.2     1  UNL1        0.1566
      3 O         143.6582  139.3463  157.1435 O.2     1  UNL1       -0.2749
      4 C         143.3554  138.0059  156.5420 C.3     1  UNL1        0.3227
      5 C         142.9992  136.8494  157.4283 C.3     1  UNL1        0.2636
      6 N         142.9458  137.0331  158.9160 N.pl3   1  UNL1       -0.2082
      7 H         142.7120  136.2741  159.4977 H       1  UNL1        0.2928
      8 C         142.6964  135.5090  156.8268 C.ar    1  UNL1        0.1692
      9 C         141.8896  135.2610  155.5868 C.ar    1  UNL1        0.0402
     10 C         141.8418  133.7800  155.3533 C.ar    1  UNL1        0.0374
     11 C         141.1909  132.9529  154.2846 C.ar    1  UNL1        0.0031
     12 C         141.3174  131.4585  154.3116 C.ar    1  UNL1        0.0002
     13 C         142.0948  130.7913  155.4072 C.ar    1  UNL1        0.0031
     14 C         142.7457  131.6184  156.4759 C.ar    1  UNL1        0.0375
     15 C         142.6192  133.1128  156.4490 C.ar    1  UNL1        0.1450
     16 O         143.1473  134.1813  157.3596 O.2     1  UNL1       -0.4537
     17 C         144.1896  139.5609  163.1856 C.ar    1  UNL1        0.2418
     18 N         144.2430  139.3772  161.6978 N.ar    1  UNL1       -0.2028
     19 C         143.1952  138.5572  161.0053 C.ar    1  UNL1        0.1702
     20 C         142.0938  137.9210  161.8004 C.ar    1  UNL1        0.0285
     21 C         142.0404  138.1047  163.2881 C.ar    1  UNL1        0.0241
     22 C         143.0883  138.9247  163.9808 C.ar    1  UNL1        0.1189
     23 N         143.0348  139.1084  165.4685 N.ar    1  UNL1       -0.2826
     24 C         143.5875  138.1635  166.4940 C.ar    1  UNL1        0.1826
     25 N         143.3135  138.7404  167.8512 N.ar    1  UNL1       -0.2280
     26 C         142.5915  140.0419  167.6645 C.ar    1  UNL1        0.0786
     27 C         142.1238  140.9555  168.7584 C.3     1  UNL1        0.0538
     28 C         142.4193  140.2693  166.1919 C.ar    1  UNL1        0.0963
     29 C         145.6773  141.6883  163.2890 C.3     1  UNL1        0.2543
     30 O         145.2374  140.3808  163.8781 O.3     1  UNL1       -0.4551
@<TRIPOS>BOND
     1    29    30    1
     2    30    17    1
     3    17    18   ar
     4    18    19   ar
     5    19     1    1
     6     1     2    2
     7     2     3    1
     8     3     4    1
     9     4     5    1
    10     5     8    1
    11     8     9   ar
    12     9    10   ar
    13    10    11   ar
    14    11    12   ar
    15    12    13   ar
    16    13    14   ar
    17    14    15   ar
    18    15    16   ar
    19     5     6    1
    20    19    20   ar
    21    20    21   ar
    22    21    22   ar
    23    22    23    1
    24    23    24   ar
    25    24    25   ar
    26    25    26   ar
    27    26    27    1
    28    26    28   ar
    29    22    17   ar
    30    28    23   ar
    31     6     1    1
    32    16     8   ar
    33    15    10   ar
    34     6     7    1
@<TRIPOS>MOLECULE
*****
 30 34 0 0 0
SMALL
GASTEIGER

@<TRIPOS>ATOM
      1 C         143.7129  142.6978  161.9773 C.2     1  UNL1        0.3845
      2 N         145.1407  142.3129  161.7261 N.2     1  UNL1        0.1566
      3 O         145.9751  141.7572  162.8419 O.2     1  UNL1       -0.2749
      4 C         145.3816  141.5863  164.2089 C.3     1  UNL1        0.3227
      5 C         143.9538  141.9712  164.4601 C.3     1  UNL1        0.2636
      6 N         143.1194  142.5269  163.3443 N.pl3   1  UNL1       -0.2082
      7 H         142.1823  142.7795  163.5092 H       1  UNL1        0.2928
      8 C         143.3603  141.8003  165.8270 C.ar    1  UNL1        0.1692
      9 C         142.3201  140.7924  166.2170 C.ar    1  UNL1        0.0402
     10 C         142.0197  140.9765  167.6750 C.ar    1  UNL1        0.0374
     11 C         141.0785  140.2676  168.6032 C.ar    1  UNL1        0.0031
     12 C         140.9918  140.6806  170.0426 C.ar    1  UNL1        0.0002
     13 C         141.8464  141.8023  170.5538 C.ar    1  UNL1        0.0031
     14 C         142.7876  142.5112  169.6256 C.ar    1  UNL1        0.0375
     15 C         142.8743  142.0983  168.1862 C.ar    1  UNL1        0.1450
     16 O         143.7028  142.6074  167.0441 O.2     1  UNL1       -0.4537
     17 C         140.8924  144.7201  160.0524 C.ar    1  UNL1        0.2418
     18 N         141.7268  144.1644  161.1682 N.ar    1  UNL1       -0.2028
     19 C         142.8784  143.2535  160.8615 C.ar    1  UNL1        0.1702
     20 C         143.1957  142.8983  159.4391 C.ar    1  UNL1        0.0285
     21 C         142.3613  143.4540  158.3234 C.ar    1  UNL1        0.0241
     22 C         141.2097  144.3650  158.6300 C.ar    1  UNL1        0.1189
     23 N         140.3753  144.9206  157.5142 N.ar    1  UNL1       -0.2826
     24 C         139.3333  144.1733  156.7359 C.ar    1  UNL1        0.1826
     25 N         138.7504  145.1120  155.7215 N.ar    1  UNL1       -0.2280
     26 C         139.4322  146.4396  155.8729 C.ar    1  UNL1        0.0786
     27 C         139.1579  147.6695  155.0591 C.3     1  UNL1        0.0538
     28 C         140.4364  146.3213  156.9808 C.ar    1  UNL1        0.0963
     29 C         139.6206  146.2571  161.7167 C.3     1  UNL1        0.2543
     30 O         139.7408  145.6310  160.3590 O.3     1  UNL1       -0.4551
@<TRIPOS>BOND
     1    29    30    1
     2    30    17    1
     3    17    18   ar
     4    18    19   ar
     5    19     1    1
     6     1     2    2
     7     2     3    1
     8     3     4    1
     9     4     5    1
    10     5     8    1
    11     8     9   ar
    12     9    10   ar
    13    10    11   ar
    14    11    12   ar
    15    12    13   ar
    16    13    14   ar
    17    14    15   ar
    18    15    16   ar
    19     5     6    1
    20    19    20   ar
    21    20    21   ar
    22    21    22   ar
    23    22    23    1
    24    23    24   ar
    25    24    25   ar
    26    25    26   ar
    27    26    27    1
    28    26    28   ar
    29    22    17   ar
    30    28    23   ar
    31     6     1    1
    32    16     8   ar
    33    15    10   ar
    34     6     7    1
@<TRIPOS>MOLECULE
*****
 30 34 0 0 0
SMALL
GASTEIGER

@<TRIPOS>ATOM
      1 C         142.3793  137.7911  157.5425 C.2     1  UNL1        0.3845
      2 N         143.4529  138.4760  156.7498 N.2     1  UNL1        0.1566
      3 O         144.3266  137.6800  155.8263 O.2     1  UNL1       -0.2749
      4 C         144.1269  136.1991  155.6955 C.3     1  UNL1        0.3227
      5 C         143.0533  135.5142  156.4881 C.3     1  UNL1        0.2636
      6 N         142.1795  136.3102  157.4116 N.pl3   1  UNL1       -0.2082
      7 H         141.4749  135.8607  157.9319 H       1  UNL1        0.2928
      8 C         142.8535  134.0334  156.3573 C.ar    1  UNL1        0.1692
      9 C         143.5572  132.9750  157.1539 C.ar    1  UNL1        0.0402
     10 C         143.0536  131.6383  156.6958 C.ar    1  UNL1        0.0374
     11 C         143.3881  130.2398  157.1223 C.ar    1  UNL1        0.0031
     12 C         142.7075  129.0735  156.4692 C.ar    1  UNL1        0.0002
     13 C         141.6925  129.3058  155.3895 C.ar    1  UNL1        0.0031
     14 C         141.3580  130.7044  154.9630 C.ar    1  UNL1        0.0375
     15 C         142.0385  131.8707  155.6161 C.ar    1  UNL1        0.1450
     16 O         141.9149  133.3509  155.4069 O.2     1  UNL1       -0.4537
     17 C         139.2445  139.7655  158.9657 C.ar    1  UNL1        0.2418
     18 N         140.1184  138.9695  158.0421 N.ar    1  UNL1       -0.2028
     19 C         141.5054  138.5871  158.4660 C.ar    1  UNL1        0.1702
     20 C         142.0187  139.0006  159.8134 C.ar    1  UNL1        0.0285
     21 C         141.1450  139.7965  160.7370 C.ar    1  UNL1        0.0241
     22 C         139.7578  140.1790  160.3131 C.ar    1  UNL1        0.1189
     23 N         138.8840  140.9749  161.2366 N.ar    1  UNL1       -0.2826
     24 C         137.7354  140.4423  162.0410 C.ar    1  UNL1        0.1826
     25 N         137.1469  141.5814  162.8195 N.ar    1  UNL1       -0.2280
     26 C         137.9319  142.8182  162.4962 C.ar    1  UNL1        0.0786
     27 C         137.6863  144.1890  163.0533 C.3     1  UNL1        0.0538
     28 C         139.0054  142.4433  161.5179 C.ar    1  UNL1        0.0963
     29 C         137.6430  140.8810  157.2508 C.3     1  UNL1        0.2543
     30 O         137.8574  140.1479  158.5418 O.3     1  UNL1       -0.4551
@<TRIPOS>BOND
     1    29    30    1
     2    30    17    1
     3    17    18   ar
     4    18    19   ar
     5    19     1    1
     6     1     2    2
     7     2     3    1
     8     3     4    1
     9     4     5    1
    10     5     8    1
    11     8     9   ar
    12     9    10   ar
    13    10    11   ar
    14    11    12   ar
    15    12    13   ar
    16    13    14   ar
    17    14    15   ar
    18    15    16   ar
    19     5     6    1
    20    19    20   ar
    21    20    21   ar
    22    21    22   ar
    23    22    23    1
    24    23    24   ar
    25    24    25   ar
    26    25    26   ar
    27    26    27    1
    28    26    28   ar
    29    22    17   ar
    30    28    23   ar
    31     6     1    1
    32    16     8   ar
    33    15    10   ar
    34     6     7    1
@<TRIPOS>MOLECULE
*****
 30 34 0 0 0
SMALL
GASTEIGER

@<TRIPOS>ATOM
      1 C         140.1966  142.7410  160.8464 C.2     1  UNL1        0.3845
      2 N         138.8274  143.1577  160.3975 N.2     1  UNL1        0.1566
      3 O         137.7077  143.2489  161.3915 O.2     1  UNL1       -0.2749
      4 C         137.9572  142.9234  162.8343 C.3     1  UNL1        0.3227
      5 C         139.3264  142.5067  163.2832 C.3     1  UNL1        0.2636
      6 N         140.4461  142.4155  162.2893 N.pl3   1  UNL1       -0.2082
      7 H         141.3448  142.1420  162.5839 H       1  UNL1        0.2928
      8 C         139.5760  142.1812  164.7261 C.ar    1  UNL1        0.1692
      9 C         140.1983  143.0937  165.7409 C.ar    1  UNL1        0.0402
     10 C         140.2539  142.3625  167.0495 C.ar    1  UNL1        0.0374
     11 C         140.7640  142.7629  168.4020 C.ar    1  UNL1        0.0031
     12 C         140.6861  141.7988  169.5485 C.ar    1  UNL1        0.0002
     13 C         140.0982  140.4343  169.3423 C.ar    1  UNL1        0.0031
     14 C         139.5882  140.0339  167.9898 C.ar    1  UNL1        0.0375
     15 C         139.6660  140.9981  166.8433 C.ar    1  UNL1        0.1450
     16 O         139.2470  140.8860  165.4074 O.2     1  UNL1       -0.4537
     17 C         143.1050  141.2408  158.6011 C.ar    1  UNL1        0.2418
     18 N         141.9852  141.3321  159.5951 N.ar    1  UNL1       -0.2028
     19 C         141.3163  142.6497  159.8525 C.ar    1  UNL1        0.1702
     20 C         141.7672  143.8762  159.1160 C.ar    1  UNL1        0.0285
     21 C         142.8869  143.7851  158.1221 C.ar    1  UNL1        0.0241
     22 C         143.5558  142.4674  157.8646 C.ar    1  UNL1        0.1189
     23 N         144.6755  142.3762  156.8707 N.ar    1  UNL1       -0.2826
     24 C         144.5333  142.4000  155.3776 C.ar    1  UNL1        0.1826
     25 N         145.9039  142.2837  154.7795 N.ar    1  UNL1       -0.2280
     26 C         146.8933  142.1880  155.9029 C.ar    1  UNL1        0.0786
     27 C         148.3807  142.0580  155.7592 C.3     1  UNL1        0.0538
     28 C         146.1341  142.2452  157.1953 C.ar    1  UNL1        0.0963
     29 C         143.0213  138.8213  157.6584 C.3     1  UNL1        0.2543
     30 O         143.7738  139.9232  158.3437 O.3     1  UNL1       -0.4551
@<TRIPOS>BOND
     1    29    30    1
     2    30    17    1
     3    17    18   ar
     4    18    19   ar
     5    19     1    1
     6     1     2    2
     7     2     3    1
     8     3     4    1
     9     4     5    1
    10     5     8    1
    11     8     9   ar
    12     9    10   ar
    13    10    11   ar
    14    11    12   ar
    15    12    13   ar
    16    13    14   ar
    17    14    15   ar
    18    15    16   ar
    19     5     6    1
    20    19    20   ar
    21    20    21   ar
    22    21    22   ar
    23    22    23    1
    24    23    24   ar
    25    24    25   ar
    26    25    26   ar
    27    26    27    1
    28    26    28   ar
    29    22    17   ar
    30    28    23   ar
    31     6     1    1
    32    16     8   ar
    33    15    10   ar
    34     6     7    1
@<TRIPOS>MOLECULE
*****
 30 34 0 0 0
SMALL
GASTEIGER

@<TRIPOS>ATOM
      1 C         143.8823  140.4830  162.3405 C.2     1  UNL1        0.3845
      2 N         145.1598  141.2688  162.3202 N.2     1  UNL1        0.1566
      3 O         145.5551  142.0884  163.5126 O.2     1  UNL1       -0.2749
      4 C         144.6729  142.1223  164.7253 C.3     1  UNL1        0.3227
      5 C         143.3954  141.3364  164.7456 C.3     1  UNL1        0.2636
      6 N         143.0001  140.5168  163.5532 N.pl3   1  UNL1       -0.2082
      7 H         142.1616  140.0010  163.5665 H       1  UNL1        0.2928
      8 C         142.5132  141.3703  165.9583 C.ar    1  UNL1        0.1692
      9 C         142.4317  142.4851  166.9585 C.ar    1  UNL1        0.0402
     10 C         141.4258  142.0991  168.0021 C.ar    1  UNL1        0.0374
     11 C         140.9319  142.8051  169.2299 C.ar    1  UNL1        0.0031
     12 C         139.8979  142.1576  170.1025 C.ar    1  UNL1        0.0002
     13 C         139.3576  140.8041  169.7472 C.ar    1  UNL1        0.0031
     14 C         139.8515  140.0981  168.5194 C.ar    1  UNL1        0.0375
     15 C         140.8856  140.7456  167.6468 C.ar    1  UNL1        0.1450
     16 O         141.5576  140.2952  166.3837 O.2     1  UNL1       -0.4537
     17 C         143.4980  139.2780  158.5787 C.ar    1  UNL1        0.2418
     18 N         143.8934  140.0978  159.7712 N.ar    1  UNL1       -0.2028
     19 C         143.4869  139.6633  161.1481 C.ar    1  UNL1        0.1702
     20 C         142.6851  138.4091  161.3327 C.ar    1  UNL1        0.0285
     21 C         142.2897  137.5894  160.1403 C.ar    1  UNL1        0.0241
     22 C         142.6962  138.0238  158.7633 C.ar    1  UNL1        0.1189
     23 N         142.3008  137.2042  157.5710 N.ar    1  UNL1       -0.2826
     24 C         141.0356  137.3529  156.7791 C.ar    1  UNL1        0.1826
     25 N         141.0540  136.3324  155.6798 N.ar    1  UNL1       -0.2280
     26 C         142.3308  135.5530  155.7924 C.ar    1  UNL1        0.0786
     27 C         142.7613  134.4317  154.8938 C.3     1  UNL1        0.0538
     28 C         143.1013  136.0918  156.9611 C.ar    1  UNL1        0.0963
     29 C         143.0272  140.6448  156.4200 C.3     1  UNL1        0.2543
     30 O         143.9045  139.7125  157.2018 O.3     1  UNL1       -0.4551
@<TRIPOS>BOND
     1    29    30    1
     2    30    17    1
     3    17    18   ar
     4    18    19   ar
     5    19     1    1
     6     1     2    2
     7     2     3    1
     8     3     4    1
     9     4     5    1
    10     5     8    1
    11     8     9   ar
    12     9    10   ar
    13    10    11   ar
    14    11    12   ar
    15    12    13   ar
    16    13    14   ar
    17    14    15   ar
    18    15    16   ar
    19     5     6    1
    20    19    20   ar
    21    20    21   ar
    22    21    22   ar
    23    22    23    1
    24    23    24   ar
    25    24    25   ar
    26    25    26   ar
    27    26    27    1
    28    26    28   ar
    29    22    17   ar
    30    28    23   ar
    31     6     1    1
    32    16     8   ar
    33    15    10   ar
    34     6     7    1
@<TRIPOS>MOLECULE
*****
 30 34 0 0 0
SMALL
GASTEIGER

@<TRIPOS>ATOM
      1 C         139.1902  140.5204  161.8920 C.2     1  UNL1        0.3845
      2 N         137.8394  141.0860  161.5675 N.2     1  UNL1        0.1566
      3 O         137.0123  141.7187  162.6471 O.2     1  UNL1       -0.2749
      4 C         137.5359  141.7858  164.0511 C.3     1  UNL1        0.3227
      5 C         138.8868  141.2202  164.3756 C.3     1  UNL1        0.2636
      6 N         139.7139  140.5875  163.2960 N.pl3   1  UNL1       -0.2082
      7 H         140.6005  140.2163  163.5090 H       1  UNL1        0.2928
      8 C         139.4105  141.2874  165.7796 C.ar    1  UNL1        0.1692
      9 C         139.4451  140.1551  166.7628 C.ar    1  UNL1        0.0402
     10 C         140.0475  140.6665  168.0378 C.ar    1  UNL1        0.0374
     11 C         140.3321  140.0004  169.3513 C.ar    1  UNL1        0.0031
     12 C         140.9545  140.7828  170.4695 C.ar    1  UNL1        0.0002
     13 C         141.2922  142.2311  170.2743 C.ar    1  UNL1        0.0031
     14 C         141.0076  142.8972  168.9608 C.ar    1  UNL1        0.0375
     15 C         140.3852  142.1149  167.8425 C.ar    1  UNL1        0.1450
     16 O         139.9915  142.4986  166.4469 O.2     1  UNL1       -0.4537
     17 C         142.2502  138.8189  160.0233 C.ar    1  UNL1        0.2418
     18 N         141.4230  139.4517  161.1029 N.ar    1  UNL1       -0.2028
     19 C         140.0175  139.8876  160.8124 C.ar    1  UNL1        0.1702
     20 C         139.4391  139.6909  159.4425 C.ar    1  UNL1        0.0285
     21 C         140.2663  139.0582  158.3629 C.ar    1  UNL1        0.0241
     22 C         141.6719  138.6222  158.6533 C.ar    1  UNL1        0.1189
     23 N         142.4990  137.9895  157.5738 N.ar    1  UNL1       -0.2826
     24 C         143.4440  138.7042  156.6539 C.ar    1  UNL1        0.1826
     25 N         144.0555  137.6874  155.7362 N.ar    1  UNL1       -0.2280
     26 C         143.4883  136.3442  156.0889 C.ar    1  UNL1        0.0786
     27 C         143.8241  135.0428  155.4228 C.3     1  UNL1        0.0538
     28 C         142.5264  136.5310  157.2246 C.ar    1  UNL1        0.0963
     29 C         144.1141  138.2257  161.7333 C.3     1  UNL1        0.2543
     30 O         143.6557  138.3829  160.3137 O.3     1  UNL1       -0.4551
@<TRIPOS>BOND
     1    29    30    1
     2    30    17    1
     3    17    18   ar
     4    18    19   ar
     5    19     1    1
     6     1     2    2
     7     2     3    1
     8     3     4    1
     9     4     5    1
    10     5     8    1
    11     8     9   ar
    12     9    10   ar
    13    10    11   ar
    14    11    12   ar
    15    12    13   ar
    16    13    14   ar
    17    14    15   ar
    18    15    16   ar
    19     5     6    1
    20    19    20   ar
    21    20    21   ar
    22    21    22   ar
    23    22    23    1
    24    23    24   ar
    25    24    25   ar
    26    25    26   ar
    27    26    27    1
    28    26    28   ar
    29    22    17   ar
    30    28    23   ar
    31     6     1    1
    32    16     8   ar
    33    15    10   ar
    34     6     7    1
@<TRIPOS>MOLECULE
*****
 30 34 0 0 0
SMALL
GASTEIGER

@<TRIPOS>ATOM
      1 C         139.6438  140.2201  162.2384 C.2     1  UNL1        0.3845
      2 N         138.9479  138.9475  161.8564 N.2     1  UNL1        0.1566
      3 O         138.6437  137.9161  162.9022 O.2     1  UNL1       -0.2749
      4 C         139.0353  138.1574  164.3299 C.3     1  UNL1        0.3227
      5 C         139.7312  139.4300  164.7119 C.3     1  UNL1        0.2636
      6 N         140.0355  140.4614  163.6661 N.pl3   1  UNL1       -0.2082
      7 H         140.4922  141.2967  163.9169 H       1  UNL1        0.2928
      8 C         140.1229  139.6713  166.1396 C.ar    1  UNL1        0.1692
      9 C         141.5217  139.6778  166.6811 C.ar    1  UNL1        0.0402
     10 C         141.4478  139.9589  168.1527 C.ar    1  UNL1        0.0374
     11 C         142.5092  140.0842  169.2051 C.ar    1  UNL1        0.0031
     12 C         142.1261  140.3768  170.6255 C.ar    1  UNL1        0.0002
     13 C         140.6816  140.5441  170.9935 C.ar    1  UNL1        0.0031
     14 C         139.6202  140.4188  169.9411 C.ar    1  UNL1        0.0375
     15 C         140.0033  140.1262  168.5207 C.ar    1  UNL1        0.1450
     16 O         139.1845  139.9485  167.2765 O.2     1  UNL1       -0.4537
     17 C         139.9075  143.7224  160.3904 C.ar    1  UNL1        0.2418
     18 N         139.6032  142.6910  161.4362 N.ar    1  UNL1       -0.2028
     19 C         139.9481  141.2516  161.1927 C.ar    1  UNL1        0.1702
     20 C         140.5974  140.8437  159.9034 C.ar    1  UNL1        0.0285
     21 C         140.9017  141.8751  158.8577 C.ar    1  UNL1        0.0241
     22 C         140.5567  143.3145  159.1012 C.ar    1  UNL1        0.1189
     23 N         140.8610  144.3459  158.0555 N.ar    1  UNL1       -0.2826
     24 C         142.2016  144.9650  157.7915 C.ar    1  UNL1        0.1826
     25 N         142.0473  145.9410  156.6630 N.ar    1  UNL1       -0.2280
     26 C         140.6113  145.9251  156.2295 C.ar    1  UNL1        0.0786
     27 C         140.0135  146.7502  155.1286 C.3     1  UNL1        0.0538
     28 C         139.8782  144.9392  157.0901 C.ar    1  UNL1        0.0963
     29 C         139.9557  145.8194  161.9235 C.3     1  UNL1        0.2543
     30 O         139.5626  145.1618  160.6339 O.3     1  UNL1       -0.4551
@<TRIPOS>BOND
     1    29    30    1
     2    30    17    1
     3    17    18   ar
     4    18    19   ar
     5    19     1    1
     6     1     2    2
     7     2     3    1
     8     3     4    1
     9     4     5    1
    10     5     8    1
    11     8     9   ar
    12     9    10   ar
    13    10    11   ar
    14    11    12   ar
    15    12    13   ar
    16    13    14   ar
    17    14    15   ar
    18    15    16   ar
    19     5     6    1
    20    19    20   ar
    21    20    21   ar
    22    21    22   ar
    23    22    23    1
    24    23    24   ar
    25    24    25   ar
    26    25    26   ar
    27    26    27    1
    28    26    28   ar
    29    22    17   ar
    30    28    23   ar
    31     6     1    1
    32    16     8   ar
    33    15    10   ar
    34     6     7    1
@<TRIPOS>MOLECULE
*****
 30 34 0 0 0
SMALL
GASTEIGER

@<TRIPOS>ATOM
      1 C         142.6716  138.0154  158.3603 C.2     1  UNL1        0.3845
      2 N         143.5872  139.0075  157.7065 N.2     1  UNL1        0.1566
      3 O         144.2157  138.6887  156.3824 O.2     1  UNL1       -0.2749
      4 C         143.9287  137.3778  155.7122 C.3     1  UNL1        0.3227
      5 C         143.0131  136.3858  156.3660 C.3     1  UNL1        0.2636
      6 N         142.3846  136.7046  157.6901 N.pl3   1  UNL1       -0.2082
      7 H         141.7837  136.0535  158.1192 H       1  UNL1        0.2928
      8 C         142.7261  135.0749  155.6957 C.ar    1  UNL1        0.1692
      9 C         142.6773  134.8332  154.2161 C.ar    1  UNL1        0.0402
     10 C         142.3586  133.3845  153.9933 C.ar    1  UNL1        0.0374
     11 C         142.1841  132.5761  152.7419 C.ar    1  UNL1        0.0031
     12 C         141.8615  131.1141  152.8324 C.ar    1  UNL1        0.0002
     13 C         141.7133  130.4604  154.1744 C.ar    1  UNL1        0.0031
     14 C         141.8878  131.2687  155.4258 C.ar    1  UNL1        0.0375
     15 C         142.2104  132.7308  155.3352 C.ar    1  UNL1        0.1450
     16 O         142.4376  133.7755  156.3874 O.2     1  UNL1       -0.4537
     17 C         140.2467  139.5920  161.0779 C.ar    1  UNL1        0.2418
     18 N         140.8753  139.2732  159.7537 N.ar    1  UNL1       -0.2028
     19 C         142.0430  138.3342  159.6845 C.ar    1  UNL1        0.1702
     20 C         142.5821  137.7140  160.9393 C.ar    1  UNL1        0.0285
     21 C         141.9536  138.0327  162.2634 C.ar    1  UNL1        0.0241
     22 C         140.7859  138.9718  162.3327 C.ar    1  UNL1        0.1189
     23 N         140.1573  139.2905  163.6568 N.ar    1  UNL1       -0.2826
     24 C         140.3988  140.5257  164.4729 C.ar    1  UNL1        0.1826
     25 N         139.5677  140.4286  165.7178 N.ar    1  UNL1       -0.2280
     26 C         138.8125  139.1333  165.6711 C.ar    1  UNL1        0.0786
     27 C         137.8601  138.6299  166.7149 C.3     1  UNL1        0.0538
     28 C         139.1769  138.4300  164.3974 C.ar    1  UNL1        0.0963
     29 C         137.6804  139.9964  161.0580 C.3     1  UNL1        0.2543
     30 O         139.0791  140.5310  161.1471 O.3     1  UNL1       -0.4551
@<TRIPOS>BOND
     1    29    30    1
     2    30    17    1
     3    17    18   ar
     4    18    19   ar
     5    19     1    1
     6     1     2    2
     7     2     3    1
     8     3     4    1
     9     4     5    1
    10     5     8    1
    11     8     9   ar
    12     9    10   ar
    13    10    11   ar
    14    11    12   ar
    15    12    13   ar
    16    13    14   ar
    17    14    15   ar
    18    15    16   ar
    19     5     6    1
    20    19    20   ar
    21    20    21   ar
    22    21    22   ar
    23    22    23    1
    24    23    24   ar
    25    24    25   ar
    26    25    26   ar
    27    26    27    1
    28    26    28   ar
    29    22    17   ar
    30    28    23   ar
    31     6     1    1
    32    16     8   ar
    33    15    10   ar
    34     6     7    1
