@<TRIPOS>MOLECULE
*****
 38 41 0 0 0
SMALL
GASTEIGER

@<TRIPOS>ATOM
      1 N         143.7170  140.1674  161.5095 N.ar    1  UNL1       -0.3123
      2 C         143.6970  139.6864  160.0889 C.ar    1  UNL1        0.0961
      3 C         142.4811  138.8270  159.9075 C.ar    1  UNL1        0.0997
      4 N         141.7496  138.7768  161.2161 N.ar    1  UNL1       -0.2309
      5 C         142.5134  139.6052  162.2062 C.ar    1  UNL1        0.1200
      6 C         142.0690  138.1386  158.6400 C.ar    1  UNL1        0.0193
      7 C         140.8152  138.5586  157.9319 C.ar    1  UNL1        0.0038
      8 C         140.4032  137.8702  156.6645 C.ar    1  UNL1        0.0296
      9 C         141.2450  136.7618  156.1053 C.ar    1  UNL1        0.1440
     10 F         140.8330  136.0734  154.8378 F       1  UNL1       -0.2042
     11 C         142.4988  136.3418  156.8134 C.ar    1  UNL1        0.0988
     12 C         142.9108  137.0301  158.0808 C.ar    1  UNL1        0.0077
     13 C         143.3406  135.2333  156.2542 C.3     1  UNL1        0.4207
     14 F         144.1824  134.1249  155.6949 F       1  UNL1       -0.1658
     15 F         142.3651  134.2248  156.7846 F       1  UNL1       -0.1658
     16 F         144.3161  136.2418  155.7237 F       1  UNL1       -0.1658
     17 C         142.1393  139.8317  163.6410 C.3     1  UNL1        0.0603
     18 C         141.3386  141.0404  164.0255 C.3     1  UNL1        0.0290
     19 C         140.9645  141.2669  165.4604 C.3     1  UNL1        0.0926
     20 N         141.3911  140.2846  166.5106 N.pl3   1  UNL1       -0.2926
     21 C         142.1919  139.0759  166.1261 C.3     1  UNL1        0.0926
     22 C         142.5659  138.8495  164.6914 C.3     1  UNL1        0.0290
     23 C         141.0170  140.5111  167.9455 C.ar    1  UNL1        0.1458
     24 N         141.9893  141.1691  168.8792 N.ar    1  UNL1       -0.2082
     25 C         141.6152  141.3956  170.3140 C.ar    1  UNL1        0.2012
     26 N         140.2688  140.9640  170.8152 N.ar    1  UNL1       -0.2087
     27 C         139.2965  140.3061  169.8815 C.ar    1  UNL1        0.1396
     28 N         137.9502  139.8745  170.3827 N.pl3   1  UNL1       -0.3420
     29 C         139.6706  140.0796  168.4467 C.ar    1  UNL1        0.1310
     30 H         137.7047  140.0232  171.3244 H       1  UNL1        0.1437
     31 H         137.3121  139.4427  169.7699 H       1  UNL1        0.1437
     32 C         138.6984  139.4216  167.5130 C.1     1  UNL1        0.1061
     33 N         137.7261  138.7636  166.5793 N.1     1  UNL1       -0.1906
     34 C         144.7578  141.0547  162.1254 C.3     1  UNL1        0.1245
     35 C         144.5978  142.5453  162.0749 C.3     1  UNL1        0.0970
     36 C         144.5874  142.6798  164.6695 C.3     1  UNL1        0.0897
     37 N         144.3296  143.3140  163.3347 N.3     1  UNL1       -0.2687
     38 C         143.8037  144.7167  163.2599 C.3     1  UNL1        0.0897
@<TRIPOS>BOND
     1    36    37    1
     2    37    38    1
     3    37    35    1
     4    35    34    1
     5    34     1    1
     6     1     2   ar
     7     2     3   ar
     8     3     6    1
     9     6     7   ar
    10     7     8   ar
    11     8     9   ar
    12     9    10    1
    13     9    11   ar
    14    11    13    1
    15    13    14    1
    16    13    15    1
    17    13    16    1
    18    11    12   ar
    19     3     4   ar
    20     4     5   ar
    21     5    17    1
    22    17    18    1
    23    18    19    1
    24    19    20    1
    25    20    23    1
    26    23    24   ar
    27    24    25   ar
    28    25    26   ar
    29    26    27   ar
    30    27    28    1
    31    27    29   ar
    32    29    32    1
    33    32    33    3
    34    20    21    1
    35    21    22    1
    36     5     1   ar
    37    22    17    1
    38    12     6   ar
    39    29    23   ar
    40    28    30    1
    41    28    31    1
@<TRIPOS>MOLECULE
*****
 38 41 0 0 0
SMALL
GASTEIGER

@<TRIPOS>ATOM
      1 N         139.8226  142.3815  163.2356 N.ar    1  UNL1       -0.3123
      2 C         139.9481  142.9070  164.6349 C.ar    1  UNL1        0.0961
      3 C         141.0279  142.1293  165.3271 C.ar    1  UNL1        0.0997
      4 N         141.5698  141.1231  164.3555 N.ar    1  UNL1       -0.2309
      5 C         140.8249  141.2789  163.0629 C.ar    1  UNL1        0.1200
      6 C         141.4855  142.3236  166.7423 C.ar    1  UNL1        0.0193
      7 C         142.9320  142.1412  167.0946 C.ar    1  UNL1        0.0038
      8 C         143.3895  142.3355  168.5098 C.ar    1  UNL1        0.0296
      9 C         142.4005  142.7123  169.5728 C.ar    1  UNL1        0.1440
     10 F         142.8580  142.9067  170.9880 F       1  UNL1       -0.2042
     11 C         140.9539  142.8948  169.2205 C.ar    1  UNL1        0.0988
     12 C         140.4964  142.7004  167.8052 C.ar    1  UNL1        0.0077
     13 C         139.9649  143.2716  170.2834 C.3     1  UNL1        0.4207
     14 F         138.9758  143.6484  171.3463 F       1  UNL1       -0.1658
     15 F         140.3361  144.7154  170.1170 F       1  UNL1       -0.1658
     16 F         139.5936  141.8278  170.4497 F       1  UNL1       -0.1658
     17 C         141.0439  140.4736  161.8165 C.3     1  UNL1        0.0603
     18 C         141.9534  140.9889  160.7408 C.3     1  UNL1        0.0290
     19 C         142.1724  140.1836  159.4943 C.3     1  UNL1        0.0926
     20 N         141.4818  138.8631  159.3237 N.pl3   1  UNL1       -0.2926
     21 C         140.5721  138.3478  160.3994 C.3     1  UNL1        0.0926
     22 C         140.3532  139.1531  161.6458 C.3     1  UNL1        0.0290
     23 C         141.7007  138.0578  158.0772 C.ar    1  UNL1        0.1458
     24 N         142.9182  137.1912  157.9484 N.ar    1  UNL1       -0.2082
     25 C         143.1372  136.3859  156.7020 C.ar    1  UNL1        0.2012
     26 N         142.1385  136.4473  155.5843 N.ar    1  UNL1       -0.2087
     27 C         140.9210  137.3138  155.7132 C.ar    1  UNL1        0.1396
     28 N         139.9224  137.3751  154.5956 N.pl3   1  UNL1       -0.3420
     29 C         140.7020  138.1191  156.9596 C.ar    1  UNL1        0.1310
     30 H         140.0661  136.8466  153.7775 H       1  UNL1        0.1437
     31 H         139.1233  137.9439  154.6801 H       1  UNL1        0.1437
     32 C         139.4845  138.9857  157.0884 C.1     1  UNL1        0.1061
     33 N         138.2670  139.8523  157.2173 N.1     1  UNL1       -0.1906
     34 C         138.8633  142.8724  162.1921 C.3     1  UNL1        0.1245
     35 C         139.3462  143.7717  161.0930 C.3     1  UNL1        0.0970
     36 C         141.7874  144.6242  161.3457 C.3     1  UNL1        0.0897
     37 N         140.3102  144.8793  161.3993 N.3     1  UNL1       -0.2687
     38 C         139.7971  146.2421  161.7593 C.3     1  UNL1        0.0897
@<TRIPOS>BOND
     1    36    37    1
     2    37    38    1
     3    37    35    1
     4    35    34    1
     5    34     1    1
     6     1     2   ar
     7     2     3   ar
     8     3     6    1
     9     6     7   ar
    10     7     8   ar
    11     8     9   ar
    12     9    10    1
    13     9    11   ar
    14    11    13    1
    15    13    14    1
    16    13    15    1
    17    13    16    1
    18    11    12   ar
    19     3     4   ar
    20     4     5   ar
    21     5    17    1
    22    17    18    1
    23    18    19    1
    24    19    20    1
    25    20    23    1
    26    23    24   ar
    27    24    25   ar
    28    25    26   ar
    29    26    27   ar
    30    27    28    1
    31    27    29   ar
    32    29    32    1
    33    32    33    3
    34    20    21    1
    35    21    22    1
    36     5     1   ar
    37    22    17    1
    38    12     6   ar
    39    29    23   ar
    40    28    30    1
    41    28    31    1
@<TRIPOS>MOLECULE
*****
 38 41 0 0 0
SMALL
GASTEIGER

@<TRIPOS>ATOM
      1 N         144.2254  141.3670  163.4267 N.ar    1  UNL1       -0.3123
      2 C         144.1291  141.7198  164.8814 C.ar    1  UNL1        0.0961
      3 C         143.0657  140.8599  165.4976 C.ar    1  UNL1        0.0997
      4 N         142.5046  139.9757  164.4237 N.ar    1  UNL1       -0.2309
      5 C         143.2213  140.2890  163.1438 C.ar    1  UNL1        0.1200
      6 C         142.6383  140.8806  166.9353 C.ar    1  UNL1        0.0193
      7 C         142.7219  139.6309  167.7607 C.ar    1  UNL1        0.0038
      8 C         142.2946  139.6517  169.1983 C.ar    1  UNL1        0.0296
      9 C         141.7837  140.9222  169.8106 C.ar    1  UNL1        0.1440
     10 F         141.3563  140.9429  171.2484 F       1  UNL1       -0.2042
     11 C         141.7001  142.1718  168.9853 C.ar    1  UNL1        0.0988
     12 C         142.1274  142.1511  167.5476 C.ar    1  UNL1        0.0077
     13 C         141.1892  143.4423  169.5976 C.3     1  UNL1        0.4207
     14 F         140.6783  144.7128  170.2099 F       1  UNL1       -0.1658
     15 F         139.9227  143.3155  168.8039 F       1  UNL1       -0.1658
     16 F         142.4557  143.5691  170.3913 F       1  UNL1       -0.1658
     17 C         142.9769  139.6387  161.8143 C.3     1  UNL1        0.0603
     18 C         142.5143  140.4632  160.6498 C.3     1  UNL1        0.0290
     19 C         142.2699  139.8128  159.3204 C.3     1  UNL1        0.0926
     20 N         142.4881  138.3380  159.1556 N.pl3   1  UNL1       -0.2926
     21 C         142.9507  137.5135  160.3202 C.3     1  UNL1        0.0926
     22 C         143.1950  138.1638  161.6495 C.3     1  UNL1        0.0290
     23 C         142.2437  137.6877  157.8262 C.ar    1  UNL1        0.1458
     24 N         143.3524  136.9483  157.1378 N.ar    1  UNL1       -0.2082
     25 C         143.1080  136.2980  155.8084 C.ar    1  UNL1        0.2012
     26 N         141.7547  136.3870  155.1673 N.ar    1  UNL1       -0.2087
     27 C         140.6460  137.1264  155.8557 C.ar    1  UNL1        0.1396
     28 N         139.2928  137.2154  155.2147 N.pl3   1  UNL1       -0.3420
     29 C         140.8904  137.7767  157.1851 C.ar    1  UNL1        0.1310
     30 H         139.1324  136.7886  154.3422 H       1  UNL1        0.1437
     31 H         138.5650  137.7007  155.6665 H       1  UNL1        0.1437
     32 C         139.7816  138.5161  157.8735 C.1     1  UNL1        0.1061
     33 N         138.6728  139.2555  158.5619 N.1     1  UNL1       -0.1906
     34 C         145.1612  141.9838  162.4298 C.3     1  UNL1        0.1245
     35 C         144.7142  143.1552  161.6064 C.3     1  UNL1        0.0970
     36 C         142.2581  143.9913  161.4696 C.3     1  UNL1        0.0897
     37 N         143.6158  144.0469  162.1049 N.3     1  UNL1       -0.2687
     38 C         143.8752  144.9942  163.2386 C.3     1  UNL1        0.0897
@<TRIPOS>BOND
     1    36    37    1
     2    37    38    1
     3    37    35    1
     4    35    34    1
     5    34     1    1
     6     1     2   ar
     7     2     3   ar
     8     3     6    1
     9     6     7   ar
    10     7     8   ar
    11     8     9   ar
    12     9    10    1
    13     9    11   ar
    14    11    13    1
    15    13    14    1
    16    13    15    1
    17    13    16    1
    18    11    12   ar
    19     3     4   ar
    20     4     5   ar
    21     5    17    1
    22    17    18    1
    23    18    19    1
    24    19    20    1
    25    20    23    1
    26    23    24   ar
    27    24    25   ar
    28    25    26   ar
    29    26    27   ar
    30    27    28    1
    31    27    29   ar
    32    29    32    1
    33    32    33    3
    34    20    21    1
    35    21    22    1
    36     5     1   ar
    37    22    17    1
    38    12     6   ar
    39    29    23   ar
    40    28    30    1
    41    28    31    1
@<TRIPOS>MOLECULE
*****
 38 41 0 0 0
SMALL
GASTEIGER

@<TRIPOS>ATOM
      1 N         143.3258  139.8297  163.8151 N.ar    1  UNL1       -0.3123
      2 C         143.2705  139.4739  165.2712 C.ar    1  UNL1        0.0961
      3 C         142.4407  140.5096  165.9704 C.ar    1  UNL1        0.0997
      4 N         141.9831  141.5056  164.9463 N.ar    1  UNL1       -0.2309
      5 C         142.5301  141.0854  163.6143 C.ar    1  UNL1        0.1200
      6 C         142.1241  140.5434  167.4362 C.ar    1  UNL1        0.0193
      7 C         142.5181  139.3937  168.3153 C.ar    1  UNL1        0.0038
      8 C         142.2014  139.4276  169.7811 C.ar    1  UNL1        0.0296
      9 C         141.4908  140.6111  170.3678 C.ar    1  UNL1        0.1440
     10 F         141.1742  140.6449  171.8336 F       1  UNL1       -0.2042
     11 C         141.0968  141.7608  169.4887 C.ar    1  UNL1        0.0988
     12 C         141.4135  141.7270  168.0229 C.ar    1  UNL1        0.0077
     13 C         140.3862  142.9444  170.0754 C.3     1  UNL1        0.4207
     14 F         139.6756  144.1280  170.6620 F       1  UNL1       -0.1658
     15 F         139.1502  142.1136  170.2544 F       1  UNL1       -0.1658
     16 F         141.6222  143.7752  169.8963 F       1  UNL1       -0.1658
     17 C         142.3186  141.7961  162.3104 C.3     1  UNL1        0.0603
     18 C         140.9948  141.7025  161.6113 C.3     1  UNL1        0.0290
     19 C         140.7833  142.4132  160.3074 C.3     1  UNL1        0.0926
     20 N         141.8956  143.2174  159.7026 N.pl3   1  UNL1       -0.2926
     21 C         143.2196  143.3110  160.4017 C.3     1  UNL1        0.0926
     22 C         143.4310  142.6004  161.7055 C.3     1  UNL1        0.0290
     23 C         141.6841  143.9281  158.3987 C.ar    1  UNL1        0.1458
     24 N         142.3347  143.4125  157.1493 N.ar    1  UNL1       -0.2082
     25 C         142.1232  144.1232  155.8454 C.ar    1  UNL1        0.2012
     26 N         141.2611  145.3496  155.7909 N.ar    1  UNL1       -0.2087
     27 C         140.6105  145.8652  157.0402 C.ar    1  UNL1        0.1396
     28 N         139.7484  147.0915  156.9856 N.pl3   1  UNL1       -0.3420
     29 C         140.8220  145.1545  158.3441 C.ar    1  UNL1        0.1310
     30 H         139.6096  147.5579  156.1298 H       1  UNL1        0.1437
     31 H         139.3214  147.4299  157.8056 H       1  UNL1        0.1437
     32 C         140.1714  145.6701  159.5935 C.1     1  UNL1        0.1061
     33 N         139.5208  146.1857  160.8428 N.1     1  UNL1       -0.1906
     34 C         144.0496  139.0643  162.7473 C.3     1  UNL1        0.1245
     35 C         143.3462  137.9689  162.0021 C.3     1  UNL1        0.0970
     36 C         141.1876  137.2685  163.2671 C.3     1  UNL1        0.0897
     37 N         141.8511  137.8626  162.0600 N.3     1  UNL1       -0.2687
     38 C         141.0194  138.3503  160.9109 C.3     1  UNL1        0.0897
@<TRIPOS>BOND
     1    36    37    1
     2    37    38    1
     3    37    35    1
     4    35    34    1
     5    34     1    1
     6     1     2   ar
     7     2     3   ar
     8     3     6    1
     9     6     7   ar
    10     7     8   ar
    11     8     9   ar
    12     9    10    1
    13     9    11   ar
    14    11    13    1
    15    13    14    1
    16    13    15    1
    17    13    16    1
    18    11    12   ar
    19     3     4   ar
    20     4     5   ar
    21     5    17    1
    22    17    18    1
    23    18    19    1
    24    19    20    1
    25    20    23    1
    26    23    24   ar
    27    24    25   ar
    28    25    26   ar
    29    26    27   ar
    30    27    28    1
    31    27    29   ar
    32    29    32    1
    33    32    33    3
    34    20    21    1
    35    21    22    1
    36     5     1   ar
    37    22    17    1
    38    12     6   ar
    39    29    23   ar
    40    28    30    1
    41    28    31    1
@<TRIPOS>MOLECULE
*****
 38 41 0 0 0
SMALL
GASTEIGER

@<TRIPOS>ATOM
      1 N         139.8059  141.4420  163.4925 N.ar    1  UNL1       -0.3123
      2 C         139.7685  141.8083  164.9466 C.ar    1  UNL1        0.0961
      3 C         141.1788  141.8222  165.4575 C.ar    1  UNL1        0.0997
      4 N         142.0877  141.4644  164.3193 N.ar    1  UNL1       -0.2309
      5 C         141.2393  141.2294  163.1048 C.ar    1  UNL1        0.1200
      6 C         141.6051  142.1384  166.8605 C.ar    1  UNL1        0.0193
      7 C         143.0527  142.0481  167.2428 C.ar    1  UNL1        0.0038
      8 C         143.4790  142.3643  168.6458 C.ar    1  UNL1        0.0296
      9 C         142.4577  142.7707  169.6664 C.ar    1  UNL1        0.1440
     10 F         142.8841  143.0869  171.0694 F       1  UNL1       -0.2042
     11 C         141.0101  142.8610  169.2841 C.ar    1  UNL1        0.0988
     12 C         140.5838  142.5448  167.8812 C.ar    1  UNL1        0.0077
     13 C         139.9888  143.2675  170.3047 C.3     1  UNL1        0.4207
     14 F         138.9674  143.6739  171.3254 F       1  UNL1       -0.1658
     15 F         139.5796  141.8334  170.4663 F       1  UNL1       -0.1658
     16 F         140.3980  144.7015  170.1431 F       1  UNL1       -0.1658
     17 C         141.7369  140.8487  161.7419 C.3     1  UNL1        0.0603
     18 C         142.4298  139.5343  161.5366 C.3     1  UNL1        0.0290
     19 C         142.9274  139.1535  160.1737 C.3     1  UNL1        0.0926
     20 N         142.7320  140.0872  159.0162 N.pl3   1  UNL1       -0.2926
     21 C         142.0390  141.4017  159.2214 C.3     1  UNL1        0.0926
     22 C         141.5415  141.7823  160.5843 C.3     1  UNL1        0.0290
     23 C         143.2295  139.7065  157.6532 C.ar    1  UNL1        0.1458
     24 N         144.5976  140.1314  157.2086 N.ar    1  UNL1       -0.2082
     25 C         145.0952  139.7506  155.8457 C.ar    1  UNL1        0.2012
     26 N         144.2246  138.9450  154.9274 N.ar    1  UNL1       -0.2087
     27 C         142.8565  138.5201  155.3721 C.ar    1  UNL1        0.1396
     28 N         141.9860  137.7144  154.4539 N.pl3   1  UNL1       -0.3420
     29 C         142.3589  138.9008  156.7350 C.ar    1  UNL1        0.1310
     30 H         142.3126  137.4646  153.5594 H       1  UNL1        0.1437
     31 H         141.0880  137.4356  154.7457 H       1  UNL1        0.1437
     32 C         140.9908  138.4759  157.1797 C.1     1  UNL1        0.1061
     33 N         139.6228  138.0510  157.6244 N.1     1  UNL1       -0.1906
     34 C         138.6185  141.3111  162.5854 C.3     1  UNL1        0.1245
     35 C         137.8810  140.0078  162.4985 C.3     1  UNL1        0.0970
     36 C         139.1389  138.0550  161.3348 C.3     1  UNL1        0.0897
     37 N         138.6335  138.7131  162.5844 N.3     1  UNL1       -0.2687
     38 C         138.8807  138.0765  163.9200 C.3     1  UNL1        0.0897
@<TRIPOS>BOND
     1    36    37    1
     2    37    38    1
     3    37    35    1
     4    35    34    1
     5    34     1    1
     6     1     2   ar
     7     2     3   ar
     8     3     6    1
     9     6     7   ar
    10     7     8   ar
    11     8     9   ar
    12     9    10    1
    13     9    11   ar
    14    11    13    1
    15    13    14    1
    16    13    15    1
    17    13    16    1
    18    11    12   ar
    19     3     4   ar
    20     4     5   ar
    21     5    17    1
    22    17    18    1
    23    18    19    1
    24    19    20    1
    25    20    23    1
    26    23    24   ar
    27    24    25   ar
    28    25    26   ar
    29    26    27   ar
    30    27    28    1
    31    27    29   ar
    32    29    32    1
    33    32    33    3
    34    20    21    1
    35    21    22    1
    36     5     1   ar
    37    22    17    1
    38    12     6   ar
    39    29    23   ar
    40    28    30    1
    41    28    31    1
@<TRIPOS>MOLECULE
*****
 38 41 0 0 0
SMALL
GASTEIGER

@<TRIPOS>ATOM
      1 N         138.7539  141.8480  161.8237 N.ar    1  UNL1       -0.3123
      2 C         138.7692  142.3506  160.4105 C.ar    1  UNL1        0.0961
      3 C         139.8454  143.3896  160.2997 C.ar    1  UNL1        0.0997
      4 N         140.4952  143.5291  161.6444 N.ar    1  UNL1       -0.2309
      5 C         139.8207  142.5764  162.5863 C.ar    1  UNL1        0.1200
      6 C         140.2080  144.1548  159.0615 C.ar    1  UNL1        0.0193
      7 C         141.4020  145.0627  159.0636 C.ar    1  UNL1        0.0038
      8 C         141.7646  145.8278  157.8254 C.ar    1  UNL1        0.0296
      9 C         140.9332  145.6849  156.5851 C.ar    1  UNL1        0.1440
     10 F         141.2959  146.4501  155.3469 F       1  UNL1       -0.2042
     11 C         139.7393  144.7769  156.5829 C.ar    1  UNL1        0.0988
     12 C         139.3767  144.0119  157.8211 C.ar    1  UNL1        0.0077
     13 C         138.9079  144.6340  155.3426 C.3     1  UNL1        0.4207
     14 F         138.0766  144.4912  154.1022 F       1  UNL1       -0.1658
     15 F         139.5163  143.2864  155.0901 F       1  UNL1       -0.1658
     16 F         138.2996  145.9817  155.5951 F       1  UNL1       -0.1658
     17 C         140.1543  142.3855  164.0362 C.3     1  UNL1        0.0603
     18 C         141.0989  141.2967  164.4514 C.3     1  UNL1        0.0290
     19 C         141.4325  141.1058  165.9014 C.3     1  UNL1        0.0926
     20 N         140.8216  142.0037  166.9360 N.pl3   1  UNL1       -0.2926
     21 C         139.8770  143.0926  166.5208 C.3     1  UNL1        0.0926
     22 C         139.5435  143.2834  165.0709 C.3     1  UNL1        0.0290
     23 C         141.1552  141.8128  168.3859 C.ar    1  UNL1        0.1458
     24 N         142.2324  142.6399  169.0228 N.ar    1  UNL1       -0.2082
     25 C         142.5660  142.4490  170.4728 C.ar    1  UNL1        0.2012
     26 N         141.8225  141.4310  171.2858 N.ar    1  UNL1       -0.2087
     27 C         140.7453  140.6039  170.6488 C.ar    1  UNL1        0.1396
     28 N         140.0018  139.5860  171.4618 N.pl3   1  UNL1       -0.3420
     29 C         140.4117  140.7948  169.1989 C.ar    1  UNL1        0.1310
     30 H         140.2208  139.4607  172.4135 H       1  UNL1        0.1437
     31 H         139.2948  139.0431  171.0438 H       1  UNL1        0.1437
     32 C         139.3345  139.9678  168.5620 C.1     1  UNL1        0.1061
     33 N         138.2574  139.1407  167.9250 N.1     1  UNL1       -0.1906
     34 C         137.8335  140.8009  162.3772 C.3     1  UNL1        0.1245
     35 C         138.0893  139.3507  162.0917 C.3     1  UNL1        0.0970
     36 C         138.6879  138.6351  164.5165 C.3     1  UNL1        0.0897
     37 N         138.9197  138.5351  163.0379 N.3     1  UNL1       -0.2687
     38 C         139.9818  137.6195  162.5054 C.3     1  UNL1        0.0897
@<TRIPOS>BOND
     1    36    37    1
     2    37    38    1
     3    37    35    1
     4    35    34    1
     5    34     1    1
     6     1     2   ar
     7     2     3   ar
     8     3     6    1
     9     6     7   ar
    10     7     8   ar
    11     8     9   ar
    12     9    10    1
    13     9    11   ar
    14    11    13    1
    15    13    14    1
    16    13    15    1
    17    13    16    1
    18    11    12   ar
    19     3     4   ar
    20     4     5   ar
    21     5    17    1
    22    17    18    1
    23    18    19    1
    24    19    20    1
    25    20    23    1
    26    23    24   ar
    27    24    25   ar
    28    25    26   ar
    29    26    27   ar
    30    27    28    1
    31    27    29   ar
    32    29    32    1
    33    32    33    3
    34    20    21    1
    35    21    22    1
    36     5     1   ar
    37    22    17    1
    38    12     6   ar
    39    29    23   ar
    40    28    30    1
    41    28    31    1
@<TRIPOS>MOLECULE
*****
 38 41 0 0 0
SMALL
GASTEIGER

@<TRIPOS>ATOM
      1 N         143.4511  142.8328  163.8864 N.ar    1  UNL1       -0.3123
      2 C         143.6788  142.6124  165.3525 C.ar    1  UNL1        0.0961
      3 C         142.3437  142.3981  166.0019 C.ar    1  UNL1        0.0997
      4 N         141.2909  142.4861  164.9371 N.ar    1  UNL1       -0.2309
      5 C         141.9753  142.7547  163.6297 C.ar    1  UNL1        0.1200
      6 C         142.1037  142.1409  167.4601 C.ar    1  UNL1        0.0193
      7 C         143.1929  142.4040  168.4573 C.ar    1  UNL1        0.0038
      8 C         142.9528  142.1469  169.9154 C.ar    1  UNL1        0.0296
      9 C         141.6235  141.6267  170.3764 C.ar    1  UNL1        0.1440
     10 F         141.3835  141.3695  171.8346 F       1  UNL1       -0.2042
     11 C         140.5343  141.3636  169.3792 C.ar    1  UNL1        0.0988
     12 C         140.7744  141.6208  167.9211 C.ar    1  UNL1        0.0077
     13 C         139.2051  140.8434  169.8401 C.3     1  UNL1        0.4207
     14 F         137.8758  140.3232  170.3011 F       1  UNL1       -0.1658
     15 F         139.4665  139.5475  169.1314 F       1  UNL1       -0.1658
     16 F         138.9437  142.1394  170.5488 F       1  UNL1       -0.1658
     17 C         141.3020  142.9169  162.2991 C.3     1  UNL1        0.0603
     18 C         141.3397  141.8001  161.2984 C.3     1  UNL1        0.0290
     19 C         140.6665  141.9622  159.9678 C.3     1  UNL1        0.0926
     20 N         139.9556  143.2411  159.6379 N.pl3   1  UNL1       -0.2926
     21 C         139.9179  144.3580  160.6386 C.3     1  UNL1        0.0926
     22 C         140.5911  144.1958  161.9691 C.3     1  UNL1        0.0290
     23 C         139.2824  143.4032  158.3073 C.ar    1  UNL1        0.1458
     24 N         138.0481  142.6121  157.9899 N.ar    1  UNL1       -0.2082
     25 C         137.3749  142.7743  156.6593 C.ar    1  UNL1        0.2012
     26 N         137.9360  143.7276  155.6461 N.ar    1  UNL1       -0.2087
     27 C         139.1702  144.5187  155.9635 C.ar    1  UNL1        0.1396
     28 N         139.7312  145.4719  154.9503 N.pl3   1  UNL1       -0.3420
     29 C         139.8434  144.3565  157.2941 C.ar    1  UNL1        0.1310
     30 H         139.2893  145.5783  154.0770 H       1  UNL1        0.1437
     31 H         140.5413  145.9911  155.1586 H       1  UNL1        0.1437
     32 C         141.0777  145.1476  157.6115 C.1     1  UNL1        0.1061
     33 N         142.3119  145.9387  157.9289 N.1     1  UNL1       -0.1906
     34 C         144.5128  143.0867  162.8576 C.3     1  UNL1        0.1245
     35 C         145.1946  141.9334  162.1831 C.3     1  UNL1        0.0970
     36 C         144.0961  139.6652  161.5520 C.3     1  UNL1        0.0897
     37 N         144.8210  140.5262  162.5436 N.3     1  UNL1       -0.2687
     38 C         145.1721  139.9799  163.8957 C.3     1  UNL1        0.0897
@<TRIPOS>BOND
     1    36    37    1
     2    37    38    1
     3    37    35    1
     4    35    34    1
     5    34     1    1
     6     1     2   ar
     7     2     3   ar
     8     3     6    1
     9     6     7   ar
    10     7     8   ar
    11     8     9   ar
    12     9    10    1
    13     9    11   ar
    14    11    13    1
    15    13    14    1
    16    13    15    1
    17    13    16    1
    18    11    12   ar
    19     3     4   ar
    20     4     5   ar
    21     5    17    1
    22    17    18    1
    23    18    19    1
    24    19    20    1
    25    20    23    1
    26    23    24   ar
    27    24    25   ar
    28    25    26   ar
    29    26    27   ar
    30    27    28    1
    31    27    29   ar
    32    29    32    1
    33    32    33    3
    34    20    21    1
    35    21    22    1
    36     5     1   ar
    37    22    17    1
    38    12     6   ar
    39    29    23   ar
    40    28    30    1
    41    28    31    1
@<TRIPOS>MOLECULE
*****
 38 41 0 0 0
SMALL
GASTEIGER

@<TRIPOS>ATOM
      1 N         143.8340  141.4483  163.6210 N.ar    1  UNL1       -0.3123
      2 C         143.8314  141.6630  165.1055 C.ar    1  UNL1        0.0961
      3 C         142.7130  140.8517  165.6894 C.ar    1  UNL1        0.0997
      4 N         142.0243  140.1355  164.5657 N.ar    1  UNL1       -0.2309
      5 C         142.7171  140.5042  163.2873 C.ar    1  UNL1        0.1200
      6 C         142.3474  140.7708  167.1419 C.ar    1  UNL1        0.0193
      7 C         142.7107  139.5538  167.9401 C.ar    1  UNL1        0.0038
      8 C         142.3451  139.4730  169.3926 C.ar    1  UNL1        0.0296
      9 C         141.6163  140.6090  170.0469 C.ar    1  UNL1        0.1440
     10 F         141.2507  140.5281  171.4995 F       1  UNL1       -0.2042
     11 C         141.2530  141.8260  169.2488 C.ar    1  UNL1        0.0988
     12 C         141.6186  141.9068  167.7963 C.ar    1  UNL1        0.0077
     13 C         140.5242  142.9620  169.9032 C.3     1  UNL1        0.4207
     14 F         139.7954  144.0981  170.5575 F       1  UNL1       -0.1658
     15 F         139.2788  142.1282  169.9637 F       1  UNL1       -0.1658
     16 F         141.7696  143.7959  169.8426 F       1  UNL1       -0.1658
     17 C         142.3563  140.0147  161.9161 C.3     1  UNL1        0.0603
     18 C         141.4398  140.8246  161.0477 C.3     1  UNL1        0.0290
     19 C         141.0790  140.3351  159.6765 C.3     1  UNL1        0.0926
     20 N         141.6349  139.0359  159.1736 N.pl3   1  UNL1       -0.2926
     21 C         142.5515  138.2260  160.0420 C.3     1  UNL1        0.0926
     22 C         142.9121  138.7155  161.4132 C.3     1  UNL1        0.0290
     23 C         141.2741  138.5464  157.8024 C.ar    1  UNL1        0.1458
     24 N         139.9755  137.8296  157.5795 N.ar    1  UNL1       -0.2082
     25 C         139.6148  137.3401  156.2082 C.ar    1  UNL1        0.2012
     26 N         140.5528  137.5676  155.0598 N.ar    1  UNL1       -0.2087
     27 C         141.8513  138.2844  155.2828 C.ar    1  UNL1        0.1396
     28 N         142.7892  138.5119  154.1344 N.pl3   1  UNL1       -0.3420
     29 C         142.2121  138.7739  156.6540 C.ar    1  UNL1        0.1310
     30 H         142.5524  138.1906  153.2344 H       1  UNL1        0.1437
     31 H         143.6415  138.9824  154.2807 H       1  UNL1        0.1437
     32 C         143.5107  139.4908  156.8769 C.1     1  UNL1        0.1061
     33 N         144.8093  140.2076  157.0999 N.1     1  UNL1       -0.1906
     34 C         144.7862  142.0687  162.6420 C.3     1  UNL1        0.1245
     35 C         144.3179  143.1658  161.7326 C.3     1  UNL1        0.0970
     36 C         142.0524  144.4277  161.5741 C.3     1  UNL1        0.0897
     37 N         143.3765  144.2148  162.2458 N.3     1  UNL1       -0.2687
     38 C         143.7594  145.0510  163.4308 C.3     1  UNL1        0.0897
@<TRIPOS>BOND
     1    36    37    1
     2    37    38    1
     3    37    35    1
     4    35    34    1
     5    34     1    1
     6     1     2   ar
     7     2     3   ar
     8     3     6    1
     9     6     7   ar
    10     7     8   ar
    11     8     9   ar
    12     9    10    1
    13     9    11   ar
    14    11    13    1
    15    13    14    1
    16    13    15    1
    17    13    16    1
    18    11    12   ar
    19     3     4   ar
    20     4     5   ar
    21     5    17    1
    22    17    18    1
    23    18    19    1
    24    19    20    1
    25    20    23    1
    26    23    24   ar
    27    24    25   ar
    28    25    26   ar
    29    26    27   ar
    30    27    28    1
    31    27    29   ar
    32    29    32    1
    33    32    33    3
    34    20    21    1
    35    21    22    1
    36     5     1   ar
    37    22    17    1
    38    12     6   ar
    39    29    23   ar
    40    28    30    1
    41    28    31    1
@<TRIPOS>MOLECULE
*****
 38 41 0 0 0
SMALL
GASTEIGER

@<TRIPOS>ATOM
      1 N         141.2547  142.3032  162.8568 N.ar    1  UNL1       -0.3123
      2 C         141.0047  142.6460  164.2955 C.ar    1  UNL1        0.0961
      3 C         141.1707  141.3947  165.1058 C.ar    1  UNL1        0.0997
      4 N         141.5234  140.2785  164.1679 N.ar    1  UNL1       -0.2309
      5 C         141.5753  140.8399  162.7779 C.ar    1  UNL1        0.1200
      6 C         141.0119  141.2798  166.5930 C.ar    1  UNL1        0.0193
      7 C         139.9991  140.3349  167.1684 C.ar    1  UNL1        0.0038
      8 C         139.8403  140.2200  168.6555 C.ar    1  UNL1        0.0296
      9 C         140.6945  141.0501  169.5673 C.ar    1  UNL1        0.1440
     10 F         140.5357  140.9352  171.0545 F       1  UNL1       -0.2042
     11 C         141.7074  141.9951  168.9919 C.ar    1  UNL1        0.0988
     12 C         141.8661  142.1099  167.5048 C.ar    1  UNL1        0.0077
     13 C         142.5616  142.8252  169.9037 C.3     1  UNL1        0.4207
     14 F         143.4157  143.6553  170.8155 F       1  UNL1       -0.1658
     15 F         143.6563  141.8042  169.8076 F       1  UNL1       -0.1658
     16 F         141.4669  143.8461  169.9997 F       1  UNL1       -0.1658
     17 C         141.8922  140.0728  161.5285 C.3     1  UNL1        0.0603
     18 C         140.7859  139.4479  160.7312 C.3     1  UNL1        0.0290
     19 C         141.1028  138.6808  159.4817 C.3     1  UNL1        0.0926
     20 N         142.5259  138.5387  159.0296 N.pl3   1  UNL1       -0.2926
     21 C         143.6322  139.1636  159.8269 C.3     1  UNL1        0.0926
     22 C         143.3153  139.9306  161.0763 C.3     1  UNL1        0.0290
     23 C         142.8427  137.7716  157.7801 C.ar    1  UNL1        0.1458
     24 N         142.8935  136.2728  157.8127 N.ar    1  UNL1       -0.2082
     25 C         143.2103  135.5057  156.5633 C.ar    1  UNL1        0.2012
     26 N         143.4765  136.2374  155.2811 N.ar    1  UNL1       -0.2087
     27 C         143.4258  137.7362  155.2485 C.ar    1  UNL1        0.1396
     28 N         143.6919  138.4679  153.9664 N.pl3   1  UNL1       -0.3420
     29 C         143.1089  138.5033  156.4980 C.ar    1  UNL1        0.1310
     30 H         143.8999  137.9644  153.1463 H       1  UNL1        0.1437
     31 H         143.6587  139.4516  153.9449 H       1  UNL1        0.1437
     32 C         143.0582  140.0021  156.4653 C.1     1  UNL1        0.1061
     33 N         143.0075  141.5008  156.4327 N.1     1  UNL1       -0.1906
     34 C         141.1947  143.2562  161.7000 C.3     1  UNL1        0.1245
     35 C         139.8701  143.7723  161.2213 C.3     1  UNL1        0.0970
     36 C         138.0652  144.5467  162.9222 C.3     1  UNL1        0.0897
     37 N         139.1785  144.8722  161.9709 N.3     1  UNL1       -0.2687
     38 C         139.6000  146.2975  161.7693 C.3     1  UNL1        0.0897
@<TRIPOS>BOND
     1    36    37    1
     2    37    38    1
     3    37    35    1
     4    35    34    1
     5    34     1    1
     6     1     2   ar
     7     2     3   ar
     8     3     6    1
     9     6     7   ar
    10     7     8   ar
    11     8     9   ar
    12     9    10    1
    13     9    11   ar
    14    11    13    1
    15    13    14    1
    16    13    15    1
    17    13    16    1
    18    11    12   ar
    19     3     4   ar
    20     4     5   ar
    21     5    17    1
    22    17    18    1
    23    18    19    1
    24    19    20    1
    25    20    23    1
    26    23    24   ar
    27    24    25   ar
    28    25    26   ar
    29    26    27   ar
    30    27    28    1
    31    27    29   ar
    32    29    32    1
    33    32    33    3
    34    20    21    1
    35    21    22    1
    36     5     1   ar
    37    22    17    1
    38    12     6   ar
    39    29    23   ar
    40    28    30    1
    41    28    31    1
