@<TRIPOS>MOLECULE
*****
 36 39 0 0 0
SMALL
GASTEIGER

@<TRIPOS>ATOM
      1 O         140.7015  140.1095  159.5005 O.2     1  UNL1       -0.2733
      2 C         139.9643  138.8969  159.0147 C.2     1  UNL1        0.2426
      3 N         139.2268  138.0272  159.9892 N.am    1  UNL1       -0.3018
      4 H         138.7429  137.2313  159.6704 H       1  UNL1        0.1495
      5 C         139.2265  138.3701  161.4496 C.3     1  UNL1        0.1035
      6 C         139.9163  137.8283  162.6664 C.3     1  UNL1        0.0933
      7 N         139.2262  138.8551  163.5147 N.3     1  UNL1       -0.2711
      8 C         138.5364  139.3968  162.2979 C.3     1  UNL1        0.0933
      9 C         139.2259  139.1980  164.9750 C.3     1  UNL1        0.0578
     10 C         138.1949  138.5999  165.8856 C.3     1  UNL1        0.0187
     11 C         138.1947  138.9428  167.3460 C.3     1  UNL1        0.0330
     12 C         139.2255  139.8838  167.8955 C.3     1  UNL1        0.1125
     13 O         138.4601  139.5753  169.1481 O.3     1  UNL1       -0.3822
     14 C         140.2565  140.4819  166.9848 C.3     1  UNL1        0.0330
     15 C         140.2567  140.1390  165.5246 C.3     1  UNL1        0.0187
     16 H         137.7393  138.9594  168.9432 H       1  UNL1        0.2107
     17 C         139.9905  140.7177  168.8801 C.ar    1  UNL1        0.0312
     18 C         140.3485  142.1654  168.7192 C.ar    1  UNL1        0.0049
     19 C         141.1110  142.5926  169.9382 C.ar    1  UNL1        0.0072
     20 C         141.2243  141.4090  170.8525 C.ar    1  UNL1        0.0352
     21 S         140.5318  140.2502  170.1986 S.2     1  UNL1       -0.0885
     22 C         139.9646  138.5539  157.5545 C.3     1  UNL1        0.1759
     23 N         140.4198  137.1979  157.1026 N.am    1  UNL1       -0.2931
     24 C         141.8699  136.9536  156.8071 C.2     1  UNL1        0.2462
     25 O         142.8649  138.0652  156.9635 O.2     1  UNL1       -0.2701
     26 H         139.7668  136.4683  157.0000 H       1  UNL1        0.1502
     27 C         142.3252  135.5976  156.3552 C.ar    1  UNL1        0.0533
     28 C         141.7468  134.9877  155.1129 C.ar    1  UNL1        0.0045
     29 C         142.2021  133.6318  154.6611 C.ar    1  UNL1        0.0001
     30 C         143.2357  132.8858  155.4516 C.ar    1  UNL1        0.0039
     31 C         143.8141  133.4956  156.6940 C.ar    1  UNL1        0.0716
     32 C         143.3589  134.8515  157.1458 C.ar    1  UNL1        0.0084
     33 C         144.8478  132.7496  157.4845 C.3     1  UNL1        0.4186
     34 F         145.8815  132.0035  158.2750 F       1  UNL1       -0.1659
     35 F         144.4810  133.5371  158.7073 F       1  UNL1       -0.1659
     36 F         145.2146  131.9621  156.2617 F       1  UNL1       -0.1659
@<TRIPOS>BOND
     1     1     2    2
     2     2    22    1
     3    22    23    1
     4    23    24   am
     5    24    25    2
     6    24    27    1
     7    27    28   ar
     8    28    29   ar
     9    29    30   ar
    10    30    31   ar
    11    31    33    1
    12    33    34    1
    13    33    35    1
    14    33    36    1
    15    31    32   ar
    16     2     3   am
    17     3     5    1
    18     5     6    1
    19     6     7    1
    20     9     7    1
    21     9    10    1
    22    10    11    1
    23    11    12    1
    24    12    13    1
    25    12    17    1
    26    17    18   ar
    27    18    19   ar
    28    19    20   ar
    29    20    21   ar
    30    12    14    1
    31    14    15    1
    32     7     8    1
    33    32    27   ar
    34     8     5    1
    35    15     9    1
    36    21    17   ar
    37    23    26    1
    38     3     4    1
    39    13    16    1
@<TRIPOS>MOLECULE
*****
 36 39 0 0 0
SMALL
GASTEIGER

@<TRIPOS>ATOM
      1 O         143.5677  138.6187  160.1816 O.2     1  UNL1       -0.2733
      2 C         142.4281  138.4098  159.2290 C.2     1  UNL1        0.2426
      3 N         141.0156  138.4295  159.7335 N.am    1  UNL1       -0.3018
      4 H         140.2677  138.2923  159.1082 H       1  UNL1        0.1495
      5 C         140.7428  138.6581  161.1907 C.3     1  UNL1        0.1035
      6 C         140.2997  139.8299  162.0157 C.3     1  UNL1        0.0933
      7 N         140.3569  138.9815  163.2514 N.3     1  UNL1       -0.2711
      8 C         140.8000  137.8097  162.4264 C.3     1  UNL1        0.0933
      9 C         140.0841  139.2102  164.7085 C.3     1  UNL1        0.0578
     10 C         138.7538  138.8340  165.2905 C.3     1  UNL1        0.0187
     11 C         138.4809  139.0627  166.7477 C.3     1  UNL1        0.0330
     12 C         139.5384  139.6676  167.6228 C.3     1  UNL1        0.1125
     13 O         138.4433  139.4786  168.6302 O.3     1  UNL1       -0.3822
     14 C         140.8687  140.0438  167.0408 C.3     1  UNL1        0.0330
     15 C         141.1415  139.8151  165.5837 C.3     1  UNL1        0.0187
     16 H         137.6703  139.0837  168.1973 H       1  UNL1        0.2107
     17 C         140.2155  140.2069  168.8478 C.ar    1  UNL1        0.0312
     18 C         139.6584  141.2418  169.7798 C.ar    1  UNL1        0.0049
     19 C         140.6673  141.4804  170.8639 C.ar    1  UNL1        0.0072
     20 C         141.8479  140.5931  170.6018 C.ar    1  UNL1        0.0352
     21 S         141.5687  139.8060  169.3558 S.2     1  UNL1       -0.0885
     22 C         142.7009  138.1812  157.7719 C.3     1  UNL1        0.1759
     23 N         142.5236  136.8138  157.1811 N.am    1  UNL1       -0.2931
     24 C         143.5146  136.2940  156.1824 C.2     1  UNL1        0.2462
     25 O         144.6830  137.1415  155.7743 O.2     1  UNL1       -0.2701
     26 H         141.7567  136.2575  157.4490 H       1  UNL1        0.1502
     27 C         143.3373  134.9266  155.5916 C.ar    1  UNL1        0.0533
     28 C         142.6486  134.7645  154.2690 C.ar    1  UNL1        0.0045
     29 C         142.4713  133.3972  153.6783 C.ar    1  UNL1        0.0001
     30 C         142.9827  132.1919  154.4103 C.ar    1  UNL1        0.0039
     31 C         143.6714  132.3540  155.7329 C.ar    1  UNL1        0.0716
     32 C         143.8487  133.7213  156.3236 C.ar    1  UNL1        0.0084
     33 C         144.1829  131.1487  156.4649 C.3     1  UNL1        0.4186
     34 F         144.6943  129.9434  157.1968 F       1  UNL1       -0.1659
     35 F         145.5921  131.6129  156.2446 F       1  UNL1       -0.1659
     36 F         142.7736  130.6845  156.6851 F       1  UNL1       -0.1659
@<TRIPOS>BOND
     1     1     2    2
     2     2    22    1
     3    22    23    1
     4    23    24   am
     5    24    25    2
     6    24    27    1
     7    27    28   ar
     8    28    29   ar
     9    29    30   ar
    10    30    31   ar
    11    31    33    1
    12    33    34    1
    13    33    35    1
    14    33    36    1
    15    31    32   ar
    16     2     3   am
    17     3     5    1
    18     5     6    1
    19     6     7    1
    20     9     7    1
    21     9    10    1
    22    10    11    1
    23    11    12    1
    24    12    13    1
    25    12    17    1
    26    17    18   ar
    27    18    19   ar
    28    19    20   ar
    29    20    21   ar
    30    12    14    1
    31    14    15    1
    32     7     8    1
    33    32    27   ar
    34     8     5    1
    35    15     9    1
    36    21    17   ar
    37    23    26    1
    38     3     4    1
    39    13    16    1
@<TRIPOS>MOLECULE
*****
 36 39 0 0 0
SMALL
GASTEIGER

@<TRIPOS>ATOM
      1 O         143.1171  140.7071  159.2732 O.2     1  UNL1       -0.2733
      2 C         142.9495  139.2778  158.8501 C.2     1  UNL1        0.2426
      3 N         142.7774  138.2049  159.8841 N.am    1  UNL1       -0.3018
      4 H         142.6674  137.2668  159.6064 H       1  UNL1        0.1495
      5 C         142.7729  138.5612  161.3412 C.3     1  UNL1        0.1035
      6 C         143.8118  139.0061  162.3275 C.3     1  UNL1        0.0933
      7 N         142.7666  139.0652  163.4018 N.3     1  UNL1       -0.2711
      8 C         141.7277  138.6203  162.4155 C.3     1  UNL1        0.0933
      9 C         142.7621  139.4215  164.8588 C.3     1  UNL1        0.0578
     10 C         143.1246  138.3889  165.8846 C.3     1  UNL1        0.0187
     11 C         143.1201  138.7453  167.3417 C.3     1  UNL1        0.0330
     12 C         142.7532  140.1343  167.7729 C.3     1  UNL1        0.1125
     13 O         143.0204  139.5085  169.1097 O.3     1  UNL1       -0.3822
     14 C         142.3907  141.1669  166.7471 C.3     1  UNL1        0.0330
     15 C         142.3952  140.8106  165.2901 C.3     1  UNL1        0.0187
     16 H         143.2765  138.5810  168.9871 H       1  UNL1        0.2107
     17 C         142.4790  141.3060  168.6684 C.ar    1  UNL1        0.0312
     18 C         143.4423  141.9144  169.6441 C.ar    1  UNL1        0.0049
     19 C         142.7521  143.0595  170.3241 C.ar    1  UNL1        0.0072
     20 C         141.3622  143.1587  169.7687 C.ar    1  UNL1        0.0352
     21 S         141.1935  142.0750  168.7455 S.2     1  UNL1       -0.0885
     22 C         142.9540  138.9214  157.3931 C.3     1  UNL1        0.1759
     23 N         143.3794  137.5505  156.9576 N.am    1  UNL1       -0.2931
     24 C         142.3475  136.5304  156.5775 C.2     1  UNL1        0.2462
     25 O         140.8902  136.8812  156.6329 O.2     1  UNL1       -0.2701
     26 H         144.3359  137.3203  156.9212 H       1  UNL1        0.1502
     27 C         142.7730  135.1594  156.1420 C.ar    1  UNL1        0.0533
     28 C         142.3125  134.6152  154.8223 C.ar    1  UNL1        0.0045
     29 C         142.7380  133.2443  154.3869 C.ar    1  UNL1        0.0001
     30 C         143.6238  132.4177  155.2711 C.ar    1  UNL1        0.0039
     31 C         144.0843  132.9620  156.5909 C.ar    1  UNL1        0.0716
     32 C         143.6588  134.3328  157.0263 C.ar    1  UNL1        0.0084
     33 C         144.9701  132.1354  157.4751 C.3     1  UNL1        0.4186
     34 F         145.8560  131.3087  158.3594 F       1  UNL1       -0.1659
     35 F         145.0901  131.1049  156.3917 F       1  UNL1       -0.1659
     36 F         144.8502  133.1658  158.5586 F       1  UNL1       -0.1659
@<TRIPOS>BOND
     1     1     2    2
     2     2    22    1
     3    22    23    1
     4    23    24   am
     5    24    25    2
     6    24    27    1
     7    27    28   ar
     8    28    29   ar
     9    29    30   ar
    10    30    31   ar
    11    31    33    1
    12    33    34    1
    13    33    35    1
    14    33    36    1
    15    31    32   ar
    16     2     3   am
    17     3     5    1
    18     5     6    1
    19     6     7    1
    20     9     7    1
    21     9    10    1
    22    10    11    1
    23    11    12    1
    24    12    13    1
    25    12    17    1
    26    17    18   ar
    27    18    19   ar
    28    19    20   ar
    29    20    21   ar
    30    12    14    1
    31    14    15    1
    32     7     8    1
    33    32    27   ar
    34     8     5    1
    35    15     9    1
    36    21    17   ar
    37    23    26    1
    38     3     4    1
    39    13    16    1
@<TRIPOS>MOLECULE
*****
 36 39 0 0 0
SMALL
GASTEIGER

@<TRIPOS>ATOM
      1 O         144.0926  139.6393  159.2786 O.2     1  UNL1       -0.2733
      2 C         143.6800  140.4957  158.1183 C.2     1  UNL1        0.2426
      3 N         143.1682  139.8586  156.8605 N.am    1  UNL1       -0.3018
      4 H         142.8974  140.4206  156.0989 H       1  UNL1        0.1495
      5 C         143.0691  138.3650  156.7630 C.3     1  UNL1        0.1035
      6 C         143.6719  137.3178  155.8741 C.3     1  UNL1        0.0933
      7 N         142.9289  136.2528  156.6250 N.3     1  UNL1       -0.2711
      8 C         142.3261  137.3000  157.5138 C.3     1  UNL1        0.0933
      9 C         142.8298  134.7593  156.5274 C.3     1  UNL1        0.0578
     10 C         141.8134  134.1328  155.6195 C.3     1  UNL1        0.0187
     11 C         141.7143  132.6392  155.5219 C.3     1  UNL1        0.0330
     12 C         142.6317  131.7722  156.3323 C.3     1  UNL1        0.1125
     13 O         141.8381  130.7174  155.6199 O.3     1  UNL1       -0.3822
     14 C         143.6481  132.3987  157.2402 C.3     1  UNL1        0.0330
     15 C         143.7472  133.8922  157.3378 C.3     1  UNL1        0.0187
     16 H         141.1845  131.1402  155.0412 H       1  UNL1        0.2107
     17 C         143.2734  130.5388  156.8953 C.ar    1  UNL1        0.0312
     18 C         144.4013  130.5044  157.8836 C.ar    1  UNL1        0.0049
     19 C         144.7249  129.0676  158.1679 C.ar    1  UNL1        0.0072
     20 C         143.7971  128.2140  157.3552 C.ar    1  UNL1        0.0352
     21 S         142.9000  129.1232  156.5687 S.2     1  UNL1       -0.0885
     22 C         143.7791  141.9892  158.2158 C.3     1  UNL1        0.1759
     23 N         143.0567  142.7191  159.3092 N.am    1  UNL1       -0.2931
     24 C         143.7439  142.9827  160.6162 C.2     1  UNL1        0.2462
     25 O         145.1535  142.5165  160.8298 O.2     1  UNL1       -0.2701
     26 H         142.1315  143.0250  159.1690 H       1  UNL1        0.1502
     27 C         143.0215  143.7125  161.7096 C.ar    1  UNL1        0.0533
     28 C         143.7966  144.3570  162.8204 C.ar    1  UNL1        0.0045
     29 C         143.0742  145.0868  163.9137 C.ar    1  UNL1        0.0001
     30 C         141.5767  145.1721  163.8963 C.ar    1  UNL1        0.0039
     31 C         140.8016  144.5277  162.7855 C.ar    1  UNL1        0.0716
     32 C         141.5240  143.7979  161.6922 C.ar    1  UNL1        0.0084
     33 C         139.3041  144.6130  162.7681 C.3     1  UNL1        0.4186
     34 F         137.8067  144.6983  162.7507 F       1  UNL1       -0.1659
     35 F         139.2858  144.0101  161.3947 F       1  UNL1       -0.1659
     36 F         139.3225  145.2159  164.1415 F       1  UNL1       -0.1659
@<TRIPOS>BOND
     1     1     2    2
     2     2    22    1
     3    22    23    1
     4    23    24   am
     5    24    25    2
     6    24    27    1
     7    27    28   ar
     8    28    29   ar
     9    29    30   ar
    10    30    31   ar
    11    31    33    1
    12    33    34    1
    13    33    35    1
    14    33    36    1
    15    31    32   ar
    16     2     3   am
    17     3     5    1
    18     5     6    1
    19     6     7    1
    20     9     7    1
    21     9    10    1
    22    10    11    1
    23    11    12    1
    24    12    13    1
    25    12    17    1
    26    17    18   ar
    27    18    19   ar
    28    19    20   ar
    29    20    21   ar
    30    12    14    1
    31    14    15    1
    32     7     8    1
    33    32    27   ar
    34     8     5    1
    35    15     9    1
    36    21    17   ar
    37    23    26    1
    38     3     4    1
    39    13    16    1
@<TRIPOS>MOLECULE
*****
 36 39 0 0 0
SMALL
GASTEIGER

@<TRIPOS>ATOM
      1 O         142.9842  143.7735  159.8128 O.2     1  UNL1       -0.2733
      2 C         143.1158  142.5823  158.9107 C.2     1  UNL1        0.2426
      3 N         143.1865  141.2028  159.4955 N.am    1  UNL1       -0.3018
      4 H         143.2729  140.4210  158.9035 H       1  UNL1        0.1495
      5 C         143.1256  141.0145  160.9825 C.3     1  UNL1        0.1035
      6 C         144.1033  141.1589  162.1108 C.3     1  UNL1        0.0933
      7 N         143.0394  140.7482  163.0853 N.3     1  UNL1       -0.2711
      8 C         142.0617  140.6038  161.9569 C.3     1  UNL1        0.0933
      9 C         142.9785  140.5599  164.5721 C.3     1  UNL1        0.0578
     10 C         143.1608  139.1934  165.1632 C.3     1  UNL1        0.0187
     11 C         143.0999  139.0051  166.6501 C.3     1  UNL1        0.0330
     12 C         142.8567  140.1834  167.5459 C.3     1  UNL1        0.1125
     13 O         142.9679  139.0948  168.5718 O.3     1  UNL1       -0.3822
     14 C         142.6744  141.5499  166.9549 C.3     1  UNL1        0.0330
     15 C         142.7353  141.7382  165.4680 C.3     1  UNL1        0.0187
     16 H         143.1305  138.2477  168.1280 H       1  UNL1        0.2107
     17 C         142.6522  140.9836  168.7980 C.ar    1  UNL1        0.0312
     18 C         143.2816  142.3089  169.1102 C.ar    1  UNL1        0.0049
     19 C         142.8007  142.7433  170.4629 C.ar    1  UNL1        0.0072
     20 C         141.8740  141.6866  170.9868 C.ar    1  UNL1        0.0352
     21 S         141.7822  140.5990  169.9579 S.2     1  UNL1       -0.0885
     22 C         143.1768  142.7705  157.4239 C.3     1  UNL1        0.1759
     23 N         144.4795  143.1135  156.7641 N.am    1  UNL1       -0.2931
     24 C         144.7415  142.6817  155.3517 C.2     1  UNL1        0.2462
     25 O         143.7008  141.9068  154.5991 O.2     1  UNL1       -0.2701
     26 H         145.1626  143.6221  157.2580 H       1  UNL1        0.1502
     27 C         146.0443  143.0247  154.6919 C.ar    1  UNL1        0.0533
     28 C         146.1405  144.2291  153.8031 C.ar    1  UNL1        0.0045
     29 C         147.4432  144.5721  153.1433 C.ar    1  UNL1        0.0001
     30 C         148.6496  143.7107  153.3724 C.ar    1  UNL1        0.0039
     31 C         148.5533  142.5062  154.2612 C.ar    1  UNL1        0.0716
     32 C         147.2507  142.1633  154.9209 C.ar    1  UNL1        0.0084
     33 C         149.7598  141.6448  154.4903 C.3     1  UNL1        0.4186
     34 F         150.9662  140.7833  154.7193 F       1  UNL1       -0.1659
     35 F         149.9412  141.5047  153.0079 F       1  UNL1       -0.1659
     36 F         149.5783  141.7849  155.9726 F       1  UNL1       -0.1659
@<TRIPOS>BOND
     1     1     2    2
     2     2    22    1
     3    22    23    1
     4    23    24   am
     5    24    25    2
     6    24    27    1
     7    27    28   ar
     8    28    29   ar
     9    29    30   ar
    10    30    31   ar
    11    31    33    1
    12    33    34    1
    13    33    35    1
    14    33    36    1
    15    31    32   ar
    16     2     3   am
    17     3     5    1
    18     5     6    1
    19     6     7    1
    20     9     7    1
    21     9    10    1
    22    10    11    1
    23    11    12    1
    24    12    13    1
    25    12    17    1
    26    17    18   ar
    27    18    19   ar
    28    19    20   ar
    29    20    21   ar
    30    12    14    1
    31    14    15    1
    32     7     8    1
    33    32    27   ar
    34     8     5    1
    35    15     9    1
    36    21    17   ar
    37    23    26    1
    38     3     4    1
    39    13    16    1
@<TRIPOS>MOLECULE
*****
 36 39 0 0 0
SMALL
GASTEIGER

@<TRIPOS>ATOM
      1 O         141.1264  140.0644  159.0789 O.2     1  UNL1       -0.2733
      2 C         139.8547  139.5001  158.5183 C.2     1  UNL1        0.2426
      3 N         138.7536  139.0704  159.4419 N.am    1  UNL1       -0.3018
      4 H         137.9189  138.7000  159.0739 H       1  UNL1        0.1495
      5 C         138.9242  139.2049  160.9261 C.3     1  UNL1        0.1035
      6 C         138.4300  140.1643  161.9678 C.3     1  UNL1        0.0933
      7 N         139.1655  139.3953  163.0250 N.3     1  UNL1       -0.2711
      8 C         139.6598  138.4359  161.9833 C.3     1  UNL1        0.0933
      9 C         139.3361  139.5299  164.5092 C.3     1  UNL1        0.0578
     10 C         138.2174  139.1436  165.4308 C.3     1  UNL1        0.0187
     11 C         138.3881  139.2782  166.9150 C.3     1  UNL1        0.0330
     12 C         139.6773  139.7992  167.4775 C.3     1  UNL1        0.1125
     13 O         138.9144  139.5656  168.7477 O.3     1  UNL1       -0.3822
     14 C         140.7960  140.1855  166.5559 C.3     1  UNL1        0.0330
     15 C         140.6254  140.0509  165.0718 C.3     1  UNL1        0.0187
     16 H         138.0338  139.2179  168.5367 H       1  UNL1        0.2107
     17 C         140.7016  140.2390  168.4812 C.ar    1  UNL1        0.0312
     18 C         140.4654  141.1736  169.6305 C.ar    1  UNL1        0.0049
     19 C         141.7599  141.3336  170.3713 C.ar    1  UNL1        0.0072
     20 C         142.7960  140.4980  169.6799 C.ar    1  UNL1        0.0352
     21 S         142.1420  139.8215  168.5118 S.2     1  UNL1       -0.0885
     22 C         139.6840  139.3655  157.0342 C.3     1  UNL1        0.1759
     23 N         138.3209  139.4935  156.4213 N.am    1  UNL1       -0.2931
     24 C         137.7643  140.8504  156.1068 C.2     1  UNL1        0.2462
     25 O         138.5708  142.0794  156.4052 O.2     1  UNL1       -0.2701
     26 H         137.7915  138.6868  156.2254 H       1  UNL1        0.1502
     27 C         136.4012  140.9783  155.4939 C.ar    1  UNL1        0.0533
     28 C         136.2573  141.4456  154.0759 C.ar    1  UNL1        0.0045
     29 C         134.8942  141.5735  153.4631 C.ar    1  UNL1        0.0001
     30 C         133.6750  141.2342  154.2683 C.ar    1  UNL1        0.0039
     31 C         133.8189  140.7670  155.6864 C.ar    1  UNL1        0.0716
     32 C         135.1820  140.6390  156.2992 C.ar    1  UNL1        0.0084
     33 C         132.5997  140.4277  156.4916 C.3     1  UNL1        0.4186
     34 F         131.3805  140.0884  157.2969 F       1  UNL1       -0.1659
     35 F         133.3785  139.3789  157.2289 F       1  UNL1       -0.1659
     36 F         131.8209  141.4765  155.7544 F       1  UNL1       -0.1659
@<TRIPOS>BOND
     1     1     2    2
     2     2    22    1
     3    22    23    1
     4    23    24   am
     5    24    25    2
     6    24    27    1
     7    27    28   ar
     8    28    29   ar
     9    29    30   ar
    10    30    31   ar
    11    31    33    1
    12    33    34    1
    13    33    35    1
    14    33    36    1
    15    31    32   ar
    16     2     3   am
    17     3     5    1
    18     5     6    1
    19     6     7    1
    20     9     7    1
    21     9    10    1
    22    10    11    1
    23    11    12    1
    24    12    13    1
    25    12    17    1
    26    17    18   ar
    27    18    19   ar
    28    19    20   ar
    29    20    21   ar
    30    12    14    1
    31    14    15    1
    32     7     8    1
    33    32    27   ar
    34     8     5    1
    35    15     9    1
    36    21    17   ar
    37    23    26    1
    38     3     4    1
    39    13    16    1
@<TRIPOS>MOLECULE
*****
 36 39 0 0 0
SMALL
GASTEIGER

@<TRIPOS>ATOM
      1 O         141.1248  138.3593  159.3478 O.2     1  UNL1       -0.2733
      2 C         142.5099  138.3787  158.7723 C.2     1  UNL1        0.2426
      3 N         143.6599  138.8680  159.6018 N.am    1  UNL1       -0.3018
      4 H         144.5689  138.8807  159.2241 H       1  UNL1        0.1495
      5 C         143.4248  139.3380  161.0068 C.3     1  UNL1        0.1035
      6 C         142.7040  140.4958  161.6312 C.3     1  UNL1        0.0933
      7 N         143.0923  140.0027  162.9936 N.3     1  UNL1       -0.2711
      8 C         143.8131  138.8449  162.3691 C.3     1  UNL1        0.0933
      9 C         142.8572  140.4728  164.3985 C.3     1  UNL1        0.0578
     10 C         143.6011  141.6640  164.9252 C.3     1  UNL1        0.0187
     11 C         143.3660  142.1341  166.3302 C.3     1  UNL1        0.0330
     12 C         142.3870  141.4128  167.2084 C.3     1  UNL1        0.1125
     13 O         142.8463  142.4826  168.1541 O.3     1  UNL1       -0.3822
     14 C         141.6431  140.2215  166.6817 C.3     1  UNL1        0.0330
     15 C         141.8782  139.7515  165.2768 C.3     1  UNL1        0.0187
     16 H         143.5020  143.0447  167.7126 H       1  UNL1        0.2107
     17 C         141.5675  141.0630  168.4150 C.ar    1  UNL1        0.0312
     18 C         141.6731  139.7996  169.2167 C.ar    1  UNL1        0.0049
     19 C         140.6694  139.8711  170.3290 C.ar    1  UNL1        0.0072
     20 C         139.9434  141.1787  170.2148 C.ar    1  UNL1        0.0352
     21 S         140.4984  141.9154  169.0320 S.2     1  UNL1       -0.0885
     22 C         142.7450  137.9087  157.3674 C.3     1  UNL1        0.1759
     23 N         143.1593  136.4900  157.1105 N.am    1  UNL1       -0.2931
     24 C         142.2602  135.5753  156.3328 C.2     1  UNL1        0.2462
     25 O         140.9469  136.0791  155.8119 O.2     1  UNL1       -0.2701
     26 H         144.0212  136.1594  157.4524 H       1  UNL1        0.1502
     27 C         142.6745  134.1567  156.0759 C.ar    1  UNL1        0.0533
     28 C         144.0479  133.6945  156.4634 C.ar    1  UNL1        0.0045
     29 C         144.4621  132.2760  156.2065 C.ar    1  UNL1        0.0001
     30 C         143.5029  131.3195  155.5621 C.ar    1  UNL1        0.0039
     31 C         142.1296  131.7817  155.1746 C.ar    1  UNL1        0.0716
     32 C         141.7153  133.2002  155.4315 C.ar    1  UNL1        0.0084
     33 C         141.1704  130.8252  154.5302 C.3     1  UNL1        0.4186
     34 F         140.2112  129.8688  153.8858 F       1  UNL1       -0.1659
     35 F         140.0200  131.5596  155.1526 F       1  UNL1       -0.1659
     36 F         142.3208  130.0909  153.9078 F       1  UNL1       -0.1659
@<TRIPOS>BOND
     1     1     2    2
     2     2    22    1
     3    22    23    1
     4    23    24   am
     5    24    25    2
     6    24    27    1
     7    27    28   ar
     8    28    29   ar
     9    29    30   ar
    10    30    31   ar
    11    31    33    1
    12    33    34    1
    13    33    35    1
    14    33    36    1
    15    31    32   ar
    16     2     3   am
    17     3     5    1
    18     5     6    1
    19     6     7    1
    20     9     7    1
    21     9    10    1
    22    10    11    1
    23    11    12    1
    24    12    13    1
    25    12    17    1
    26    17    18   ar
    27    18    19   ar
    28    19    20   ar
    29    20    21   ar
    30    12    14    1
    31    14    15    1
    32     7     8    1
    33    32    27   ar
    34     8     5    1
    35    15     9    1
    36    21    17   ar
    37    23    26    1
    38     3     4    1
    39    13    16    1
@<TRIPOS>MOLECULE
*****
 36 39 0 0 0
SMALL
GASTEIGER

@<TRIPOS>ATOM
      1 O         141.0429  140.6046  162.6005 O.2     1  UNL1       -0.2733
      2 C         140.0903  139.4494  162.6913 C.2     1  UNL1        0.2426
      3 N         139.0140  139.2820  161.6600 N.am    1  UNL1       -0.3018
      4 H         138.3889  138.5238  161.7196 H       1  UNL1        0.1495
      5 C         138.8903  140.2697  160.5379 C.3     1  UNL1        0.1035
      6 C         138.2719  141.6276  160.3835 C.3     1  UNL1        0.0933
      7 N         138.7152  141.6667  158.9511 N.3     1  UNL1       -0.2711
      8 C         139.3336  140.3088  159.1054 C.3     1  UNL1        0.0933
      9 C         138.5914  142.6544  157.8290 C.3     1  UNL1        0.0578
     10 C         137.4053  142.6032  156.9122 C.3     1  UNL1        0.0187
     11 C         137.2815  143.5910  155.7901 C.3     1  UNL1        0.0330
     12 C         138.3438  144.6299  155.5849 C.3     1  UNL1        0.1125
     13 O         137.4146  144.9821  154.4613 O.3     1  UNL1       -0.3822
     14 C         139.5299  144.6811  156.5018 C.3     1  UNL1        0.0330
     15 C         139.6537  143.6934  157.6238 C.3     1  UNL1        0.0187
     16 H         136.6566  144.3769  154.4670 H       1  UNL1        0.2107
     17 C         139.0835  145.7912  154.9895 C.ar    1  UNL1        0.0312
     18 C         138.7874  147.2419  155.2297 C.ar    1  UNL1        0.0049
     19 C         139.7700  148.0528  154.4380 C.ar    1  UNL1        0.0072
     20 C         140.6733  147.1033  153.7084 C.ar    1  UNL1        0.0352
     21 S         140.2490  145.7055  154.0493 S.2     1  UNL1       -0.0885
     22 C         140.2140  138.4617  163.8133 C.3     1  UNL1        0.1759
     23 N         140.5970  138.9300  165.1860 N.am    1  UNL1       -0.2931
     24 C         139.5714  139.5714  166.0729 C.2     1  UNL1        0.2462
     25 O         138.1628  139.7446  165.5872 O.2     1  UNL1       -0.2701
     26 H         141.5215  138.8163  165.5047 H       1  UNL1        0.1502
     27 C         139.9544  140.0397  167.4456 C.ar    1  UNL1        0.0533
     28 C         138.9822  139.9105  168.5805 C.ar    1  UNL1        0.0045
     29 C         139.3652  140.3787  169.9530 C.ar    1  UNL1        0.0001
     30 C         140.7204  140.9762  170.1907 C.ar    1  UNL1        0.0039
     31 C         141.6926  141.1054  169.0558 C.ar    1  UNL1        0.0716
     32 C         141.3096  140.6371  167.6832 C.ar    1  UNL1        0.0084
     33 C         143.0478  141.7028  169.2934 C.3     1  UNL1        0.4186
     34 F         144.4030  142.3003  169.5311 F       1  UNL1       -0.1659
     35 F         143.3297  140.6524  170.3265 F       1  UNL1       -0.1659
     36 F         142.7659  142.7532  168.2604 F       1  UNL1       -0.1659
@<TRIPOS>BOND
     1     1     2    2
     2     2    22    1
     3    22    23    1
     4    23    24   am
     5    24    25    2
     6    24    27    1
     7    27    28   ar
     8    28    29   ar
     9    29    30   ar
    10    30    31   ar
    11    31    33    1
    12    33    34    1
    13    33    35    1
    14    33    36    1
    15    31    32   ar
    16     2     3   am
    17     3     5    1
    18     5     6    1
    19     6     7    1
    20     9     7    1
    21     9    10    1
    22    10    11    1
    23    11    12    1
    24    12    13    1
    25    12    17    1
    26    17    18   ar
    27    18    19   ar
    28    19    20   ar
    29    20    21   ar
    30    12    14    1
    31    14    15    1
    32     7     8    1
    33    32    27   ar
    34     8     5    1
    35    15     9    1
    36    21    17   ar
    37    23    26    1
    38     3     4    1
    39    13    16    1
@<TRIPOS>MOLECULE
*****
 36 39 0 0 0
SMALL
GASTEIGER

@<TRIPOS>ATOM
      1 O         140.2735  138.7564  157.8516 O.2     1  UNL1       -0.2733
      2 C         141.4223  137.9064  157.3958 C.2     1  UNL1        0.2426
      3 N         142.6642  137.8129  158.2319 N.am    1  UNL1       -0.3018
      4 H         143.4181  137.2550  157.9328 H       1  UNL1        0.1495
      5 C         142.7572  138.5696  159.5238 C.3     1  UNL1        0.1035
      6 C         143.5539  139.7438  160.0102 C.3     1  UNL1        0.0933
      7 N         142.8890  139.6396  161.3508 N.3     1  UNL1       -0.2711
      8 C         142.0923  138.4654  160.8644 C.3     1  UNL1        0.0933
      9 C         142.9821  140.3962  162.6426 C.3     1  UNL1        0.0578
     10 C         144.2045  141.2097  162.9489 C.3     1  UNL1        0.0187
     11 C         144.2976  141.9663  164.2408 C.3     1  UNL1        0.0330
     12 C         143.1683  141.9095  165.2263 C.3     1  UNL1        0.1125
     13 O         144.1124  142.8120  165.9638 O.3     1  UNL1       -0.3822
     14 C         141.9458  141.0960  164.9200 C.3     1  UNL1        0.0330
     15 C         141.8527  140.3394  163.6282 C.3     1  UNL1        0.0187
     16 H         144.9136  142.9447  165.4333 H       1  UNL1        0.2107
     17 C         142.3668  142.1661  166.4679 C.ar    1  UNL1        0.0312
     18 C         140.9178  142.5507  166.5183 C.ar    1  UNL1        0.0049
     19 C         140.5291  142.7054  167.9588 C.ar    1  UNL1        0.0072
     20 C         141.7378  142.4165  168.7986 C.ar    1  UNL1        0.0352
     21 S         142.8736  142.0832  167.8773 S.2     1  UNL1       -0.0885
     22 C         141.3293  137.1498  156.1040 C.3     1  UNL1        0.1759
     23 N         141.3109  135.6499  156.1129 N.am    1  UNL1       -0.2931
     24 C         142.6003  134.8842  156.1469 C.2     1  UNL1        0.2462
     25 O         143.9081  135.6184  156.1720 O.2     1  UNL1       -0.2701
     26 H         140.4526  135.1680  156.0965 H       1  UNL1        0.1502
     27 C         142.5819  133.3843  156.1558 C.ar    1  UNL1        0.0533
     28 C         141.6218  132.6408  155.2754 C.ar    1  UNL1        0.0045
     29 C         141.6034  131.1409  155.2844 C.ar    1  UNL1        0.0001
     30 C         142.5453  130.3846  156.1737 C.ar    1  UNL1        0.0039
     31 C         143.5054  131.1282  157.0542 C.ar    1  UNL1        0.0716
     32 C         143.5238  132.6280  157.0452 C.ar    1  UNL1        0.0084
     33 C         144.4473  130.3719  157.9435 C.3     1  UNL1        0.4186
     34 F         145.3891  129.6156  158.8329 F       1  UNL1       -0.1659
     35 F         143.7311  129.0952  157.6162 F       1  UNL1       -0.1659
     36 F         145.1634  131.6486  158.2708 F       1  UNL1       -0.1659
@<TRIPOS>BOND
     1     1     2    2
     2     2    22    1
     3    22    23    1
     4    23    24   am
     5    24    25    2
     6    24    27    1
     7    27    28   ar
     8    28    29   ar
     9    29    30   ar
    10    30    31   ar
    11    31    33    1
    12    33    34    1
    13    33    35    1
    14    33    36    1
    15    31    32   ar
    16     2     3   am
    17     3     5    1
    18     5     6    1
    19     6     7    1
    20     9     7    1
    21     9    10    1
    22    10    11    1
    23    11    12    1
    24    12    13    1
    25    12    17    1
    26    17    18   ar
    27    18    19   ar
    28    19    20   ar
    29    20    21   ar
    30    12    14    1
    31    14    15    1
    32     7     8    1
    33    32    27   ar
    34     8     5    1
    35    15     9    1
    36    21    17   ar
    37    23    26    1
    38     3     4    1
    39    13    16    1
