@<TRIPOS>MOLECULE
*****
 45 50 0 0 0
SMALL
GASTEIGER

@<TRIPOS>ATOM
      1 C         142.7121  139.4221  158.7992 C.ar    1  UNL1        0.0358
      2 C         143.6518  140.4875  158.3178 C.ar    1  UNL1        0.0029
      3 C         144.0353  141.6166  159.2279 C.ar    1  UNL1        0.0016
      4 C         143.4790  141.6802  160.6194 C.ar    1  UNL1        0.0174
      5 C         142.5392  140.6149  161.1009 C.ar    1  UNL1        0.0653
      6 C         142.1557  139.4858  160.1908 C.ar    1  UNL1        0.0261
      7 N         141.9828  140.6786  162.4925 N.ar    1  UNL1       -0.2733
      8 C         140.7121  141.4299  162.7585 C.ar    1  UNL1        0.0829
      9 C         140.1558  141.4935  164.1501 C.ar    1  UNL1        0.0193
     10 C         140.8703  140.8059  165.2756 C.ar    1  UNL1        0.0080
     11 C         140.3139  140.8696  166.6672 C.ar    1  UNL1       -0.0039
     12 C         141.0283  140.1820  167.7927 C.ar    1  UNL1       -0.0203
     13 C         142.2991  139.4307  167.5266 C.ar    1  UNL1        0.0255
     14 C         142.8554  139.3670  166.1351 C.ar    1  UNL1        0.1444
     15 F         144.1261  138.6158  165.8690 F       1  UNL1       -0.2040
     16 C         142.1410  140.0547  165.0096 C.ar    1  UNL1        0.0839
     17 C         142.6972  139.9910  163.6180 C.ar    1  UNL1        0.2668
     18 O         143.9680  139.2397  163.3519 O.2     1  UNL1       -0.2665
     19 C         140.4721  140.2457  169.1843 C.3     1  UNL1        0.0224
     20 C         140.6833  140.2385  170.6693 C.3     1  UNL1        0.0047
     21 C         139.2973  140.3632  170.1095 C.3     1  UNL1        0.0047
     22 C         142.9857  136.1885  156.5149 C.ar    1  UNL1        0.2244
     23 N         141.5616  136.0350  156.0690 N.ar    1  UNL1       -0.1810
     24 C         140.5211  137.0106  156.5333 C.ar    1  UNL1        0.2174
     25 N         139.0972  136.8572  156.0875 N.pl3   1  UNL1       -0.3273
     26 N         140.9046  138.1397  157.4434 N.ar    1  UNL1       -0.1948
     27 C         142.3286  138.2931  157.8892 C.ar    1  UNL1        0.1678
     28 N         143.3691  137.3175  157.4249 N.ar    1  UNL1       -0.1943
     29 H         138.8455  136.1162  155.4902 H       1  UNL1        0.1452
     30 H         138.4143  137.4975  156.3923 H       1  UNL1        0.1452
     31 N         144.0262  135.2129  156.0506 N.pl3   1  UNL1       -0.2812
     32 H         144.8713  135.5404  155.6661 H       1  UNL1        0.1551
     33 N         143.0422  131.4748  155.6994 N.ar    1  UNL1       -0.3190
     34 C         143.0568  132.8805  155.1761 C.ar    1  UNL1        0.0912
     35 C         143.7791  133.7384  156.1721 C.ar    1  UNL1        0.0701
     36 C         144.2110  132.8630  157.3111 C.ar    1  UNL1        0.0440
     37 C         143.7556  131.4640  157.0189 C.ar    1  UNL1        0.1309
     38 C         140.9303  130.1617  154.9473 C.3     1  UNL1        0.0245
     39 C         142.4230  130.2882  155.0221 C.3     1  UNL1        0.0863
     40 C         143.2966  129.2281  154.4196 C.3     1  UNL1        0.0245
     41 C         143.9749  130.2648  157.8928 C.1     1  UNL1        0.1180
     42 N         144.1943  129.0655  158.7667 N.1     1  UNL1       -0.1893
     43 C         141.2159  138.4205  160.6723 C.3     1  UNL1        0.1651
     44 O         141.7272  137.3013  161.5303 O.3     1  UNL1       -0.3772
     45 H         142.3423  136.7550  161.0164 H       1  UNL1        0.2109
@<TRIPOS>BOND
     1    38    39    1
     2    39    40    1
     3    39    33    1
     4    33    34   ar
     5    34    35   ar
     6    35    31    1
     7    31    22    1
     8    22    23   ar
     9    23    24   ar
    10    24    25    1
    11    24    26   ar
    12    26    27   ar
    13    27     1    1
    14     1     2   ar
    15     2     3   ar
    16     3     4   ar
    17     4     5   ar
    18     5     7    1
    19     7     8   ar
    20     8     9   ar
    21     9    10   ar
    22    10    11   ar
    23    11    12   ar
    24    12    19    1
    25    19    20    1
    26    20    21    1
    27    12    13   ar
    28    13    14   ar
    29    14    15    1
    30    14    16   ar
    31    16    17   ar
    32    17    18    2
    33     5     6   ar
    34     6    43    1
    35    43    44    1
    36    27    28   ar
    37    35    36   ar
    38    36    37   ar
    39    37    41    1
    40    41    42    3
    41    37    33   ar
    42    28    22   ar
    43     6     1   ar
    44    17     7   ar
    45    16    10   ar
    46    21    19    1
    47    31    32    1
    48    25    29    1
    49    25    30    1
    50    44    45    1
@<TRIPOS>MOLECULE
*****
 45 50 0 0 0
SMALL
GASTEIGER

@<TRIPOS>ATOM
      1 C         140.1065  139.4444  158.0296 C.ar    1  UNL1        0.0358
      2 C         138.9887  140.1395  157.3103 C.ar    1  UNL1        0.0029
      3 C         138.0248  140.9983  158.0742 C.ar    1  UNL1        0.0016
      4 C         138.1789  141.1621  159.5572 C.ar    1  UNL1        0.0174
      5 C         139.2967  140.4670  160.2765 C.ar    1  UNL1        0.0653
      6 C         140.2605  139.6082  159.5127 C.ar    1  UNL1        0.0261
      7 N         139.4507  140.6308  161.7596 N.ar    1  UNL1       -0.2733
      8 C         140.0484  141.8884  162.3172 C.ar    1  UNL1        0.0829
      9 C         140.2024  142.0522  163.8002 C.ar    1  UNL1        0.0193
     10 C         139.7586  140.9583  164.7257 C.ar    1  UNL1        0.0080
     11 C         139.9125  141.1220  166.2088 C.ar    1  UNL1       -0.0039
     12 C         139.4687  140.0281  167.1342 C.ar    1  UNL1       -0.0203
     13 C         138.8710  138.7704  166.5765 C.ar    1  UNL1        0.0255
     14 C         138.7170  138.6067  165.0935 C.ar    1  UNL1        0.1444
     15 F         138.1192  137.3491  164.5359 F       1  UNL1       -0.2040
     16 C         139.1608  139.7006  164.1681 C.ar    1  UNL1        0.0839
     17 C         139.0068  139.5369  162.6850 C.ar    1  UNL1        0.2668
     18 O         138.4091  138.2792  162.1273 O.2     1  UNL1       -0.2665
     19 C         139.6227  140.1919  168.6172 C.3     1  UNL1        0.0224
     20 C         140.4868  140.1755  169.8432 C.3     1  UNL1        0.0047
     21 C         139.0252  140.4918  169.9600 C.3     1  UNL1        0.0047
     22 C         141.6227  136.3567  156.0503 C.ar    1  UNL1        0.2244
     23 N         142.9980  136.8678  155.7382 N.ar    1  UNL1       -0.1810
     24 C         143.4095  138.2377  156.1899 C.ar    1  UNL1        0.2174
     25 N         144.7847  138.7488  155.8778 N.pl3   1  UNL1       -0.3273
     26 N         142.4456  139.0966  156.9537 N.ar    1  UNL1       -0.1948
     27 C         141.0703  138.5855  157.2658 C.ar    1  UNL1        0.1678
     28 N         140.6589  137.2156  156.8141 N.ar    1  UNL1       -0.1943
     29 H         145.4173  138.1851  155.3765 H       1  UNL1        0.1452
     30 H         145.0547  139.6479  156.1743 H       1  UNL1        0.1452
     31 N         141.2112  134.9868  155.5986 N.pl3   1  UNL1       -0.2812
     32 H         140.3181  134.8443  155.2097 H       1  UNL1        0.1551
     33 N         143.7400  132.2454  156.6732 N.ar    1  UNL1       -0.3190
     34 C         142.9105  133.4563  156.9824 C.ar    1  UNL1        0.0912
     35 C         142.1605  133.8341  155.7395 C.ar    1  UNL1        0.0701
     36 C         142.5266  132.8566  154.6621 C.ar    1  UNL1        0.0440
     37 C         143.5028  131.8748  155.2392 C.ar    1  UNL1        0.1309
     38 C         145.8137  132.2517  158.2384 C.3     1  UNL1        0.0245
     39 C         144.6475  131.5306  157.6301 C.3     1  UNL1        0.0863
     40 C         144.3889  130.0948  157.9786 C.3     1  UNL1        0.0245
     41 C         144.1313  130.7243  154.5103 C.1     1  UNL1        0.1180
     42 N         144.7599  129.5738  153.7814 N.1     1  UNL1       -0.1893
     43 C         141.3783  138.9131  160.2320 C.3     1  UNL1        0.1651
     44 O         141.1124  137.6393  160.9784 O.3     1  UNL1       -0.3772
     45 H         140.5248  137.8208  161.7284 H       1  UNL1        0.2109
@<TRIPOS>BOND
     1    38    39    1
     2    39    40    1
     3    39    33    1
     4    33    34   ar
     5    34    35   ar
     6    35    31    1
     7    31    22    1
     8    22    23   ar
     9    23    24   ar
    10    24    25    1
    11    24    26   ar
    12    26    27   ar
    13    27     1    1
    14     1     2   ar
    15     2     3   ar
    16     3     4   ar
    17     4     5   ar
    18     5     7    1
    19     7     8   ar
    20     8     9   ar
    21     9    10   ar
    22    10    11   ar
    23    11    12   ar
    24    12    19    1
    25    19    20    1
    26    20    21    1
    27    12    13   ar
    28    13    14   ar
    29    14    15    1
    30    14    16   ar
    31    16    17   ar
    32    17    18    2
    33     5     6   ar
    34     6    43    1
    35    43    44    1
    36    27    28   ar
    37    35    36   ar
    38    36    37   ar
    39    37    41    1
    40    41    42    3
    41    37    33   ar
    42    28    22   ar
    43     6     1   ar
    44    17     7   ar
    45    16    10   ar
    46    21    19    1
    47    31    32    1
    48    25    29    1
    49    25    30    1
    50    44    45    1
@<TRIPOS>MOLECULE
*****
 45 50 0 0 0
SMALL
GASTEIGER

@<TRIPOS>ATOM
      1 C         142.8846  139.3087  158.7193 C.ar    1  UNL1        0.0358
      2 C         143.6497  140.4763  158.1703 C.ar    1  UNL1        0.0029
      3 C         144.1097  141.5699  159.0883 C.ar    1  UNL1        0.0016
      4 C         143.8048  141.4958  160.5550 C.ar    1  UNL1        0.0174
      5 C         143.0398  140.3281  161.1040 C.ar    1  UNL1        0.0653
      6 C         142.5797  139.2346  160.1861 C.ar    1  UNL1        0.0261
      7 N         142.7348  140.2540  162.5708 N.ar    1  UNL1       -0.2733
      8 C         143.8151  139.8845  163.5437 C.ar    1  UNL1        0.0829
      9 C         143.5101  139.8104  165.0105 C.ar    1  UNL1        0.0193
     10 C         142.1249  140.1059  165.5044 C.ar    1  UNL1        0.0080
     11 C         141.8200  140.0318  166.9712 C.ar    1  UNL1       -0.0039
     12 C         140.4348  140.3272  167.4651 C.ar    1  UNL1       -0.0203
     13 C         139.3545  140.6968  166.4922 C.ar    1  UNL1        0.0255
     14 C         139.6595  140.7708  165.0254 C.ar    1  UNL1        0.1444
     15 F         138.5793  141.1404  164.0525 F       1  UNL1       -0.2040
     16 C         141.0447  140.4754  164.5315 C.ar    1  UNL1        0.0839
     17 C         141.3496  140.5495  163.0647 C.ar    1  UNL1        0.2668
     18 O         140.2694  140.9190  162.0918 O.2     1  UNL1       -0.2665
     19 C         140.1298  140.2531  168.9319 C.3     1  UNL1        0.0224
     20 C         139.1517  140.3715  170.0629 C.3     1  UNL1        0.0047
     21 C         140.5797  140.0064  170.3414 C.3     1  UNL1        0.0047
     22 C         142.9509  136.1251  156.3507 C.ar    1  UNL1        0.2244
     23 N         141.5044  136.0280  155.9657 N.ar    1  UNL1       -0.1810
     24 C         140.5180  137.0246  156.4985 C.ar    1  UNL1        0.2174
     25 N         139.0715  136.9276  156.1135 N.pl3   1  UNL1       -0.3273
     26 N         140.9781  138.1182  157.4164 N.ar    1  UNL1       -0.1948
     27 C         142.4246  138.2151  157.8014 C.ar    1  UNL1        0.1678
     28 N         143.4110  137.2186  157.2686 N.ar    1  UNL1       -0.1943
     29 H         138.7695  136.2099  155.5111 H       1  UNL1        0.1452
     30 H         138.4241  137.5817  156.4632 H       1  UNL1        0.1452
     31 N         143.9373  135.1285  155.8179 N.pl3   1  UNL1       -0.2812
     32 H         144.7732  135.4384  155.4001 H       1  UNL1        0.1551
     33 N         142.9139  131.4089  155.3912 N.ar    1  UNL1       -0.3190
     34 C         143.0051  132.8111  154.8664 C.ar    1  UNL1        0.0912
     35 C         143.6501  133.6600  155.9215 C.ar    1  UNL1        0.0701
     36 C         143.9576  132.7824  157.0985 C.ar    1  UNL1        0.0440
     37 C         143.5026  131.3911  156.7708 C.ar    1  UNL1        0.1309
     38 C         143.2134  129.3828  153.7927 C.3     1  UNL1        0.0245
     39 C         142.3355  130.2312  154.6642 C.3     1  UNL1        0.0863
     40 C         140.8793  129.9020  154.8086 C.3     1  UNL1        0.0245
     41 C         143.6163  130.1926  157.6655 C.1     1  UNL1        0.1180
     42 N         143.7300  128.9940  158.5602 N.1     1  UNL1       -0.1893
     43 C         141.8147  138.0669  160.7350 C.3     1  UNL1        0.1651
     44 O         140.3147  138.0819  160.7260 O.3     1  UNL1       -0.3772
     45 H         139.9948  138.7792  161.3197 H       1  UNL1        0.2109
@<TRIPOS>BOND
     1    38    39    1
     2    39    40    1
     3    39    33    1
     4    33    34   ar
     5    34    35   ar
     6    35    31    1
     7    31    22    1
     8    22    23   ar
     9    23    24   ar
    10    24    25    1
    11    24    26   ar
    12    26    27   ar
    13    27     1    1
    14     1     2   ar
    15     2     3   ar
    16     3     4   ar
    17     4     5   ar
    18     5     7    1
    19     7     8   ar
    20     8     9   ar
    21     9    10   ar
    22    10    11   ar
    23    11    12   ar
    24    12    19    1
    25    19    20    1
    26    20    21    1
    27    12    13   ar
    28    13    14   ar
    29    14    15    1
    30    14    16   ar
    31    16    17   ar
    32    17    18    2
    33     5     6   ar
    34     6    43    1
    35    43    44    1
    36    27    28   ar
    37    35    36   ar
    38    36    37   ar
    39    37    41    1
    40    41    42    3
    41    37    33   ar
    42    28    22   ar
    43     6     1   ar
    44    17     7   ar
    45    16    10   ar
    46    21    19    1
    47    31    32    1
    48    25    29    1
    49    25    30    1
    50    44    45    1
@<TRIPOS>MOLECULE
*****
 45 50 0 0 0
SMALL
GASTEIGER

@<TRIPOS>ATOM
      1 C         140.8898  143.1372  159.3151 C.ar    1  UNL1        0.0358
      2 C         140.4557  144.1337  158.2814 C.ar    1  UNL1        0.0029
      3 C         140.2141  143.6918  156.8685 C.ar    1  UNL1        0.0016
      4 C         140.4065  142.2534  156.4893 C.ar    1  UNL1        0.0174
      5 C         140.8406  141.2568  157.5229 C.ar    1  UNL1        0.0653
      6 C         141.0822  141.6987  158.9358 C.ar    1  UNL1        0.0261
      7 N         141.0330  139.8183  157.1436 N.ar    1  UNL1       -0.2733
      8 C         139.8985  138.8473  157.2845 C.ar    1  UNL1        0.0829
      9 C         140.0909  137.4089  156.9052 C.ar    1  UNL1        0.0193
     10 C         141.4179  136.9415  156.3851 C.ar    1  UNL1        0.0080
     11 C         141.6104  135.5030  156.0058 C.ar    1  UNL1       -0.0039
     12 C         142.9374  135.0356  155.4857 C.ar    1  UNL1       -0.0203
     13 C         144.0720  136.0067  155.3448 C.ar    1  UNL1        0.0255
     14 C         143.8795  137.4451  155.7241 C.ar    1  UNL1        0.1444
     15 F         145.0141  138.4161  155.5833 F       1  UNL1       -0.2040
     16 C         142.5525  137.9125  156.2442 C.ar    1  UNL1        0.0839
     17 C         142.3600  139.3509  156.6235 C.ar    1  UNL1        0.2668
     18 O         143.4946  140.3220  156.4827 O.2     1  UNL1       -0.2665
     19 C         143.1298  133.5972  155.1064 C.3     1  UNL1        0.0224
     20 C         142.8818  132.4583  154.1623 C.3     1  UNL1        0.0047
     21 C         143.7113  132.2446  155.3936 C.3     1  UNL1        0.0047
     22 C         140.3158  143.8101  163.1839 C.ar    1  UNL1        0.2244
     23 N         141.6147  144.4628  163.5539 N.ar    1  UNL1       -0.1810
     24 C         142.6720  144.6737  162.5109 C.ar    1  UNL1        0.2174
     25 N         143.9708  145.3264  162.8808 N.pl3   1  UNL1       -0.3273
     26 N         142.4303  144.2318  161.0979 N.ar    1  UNL1       -0.1948
     27 C         141.1314  143.5791  160.7280 C.ar    1  UNL1        0.1678
     28 N         140.0742  143.3682  161.7710 N.ar    1  UNL1       -0.1943
     29 H         144.1294  145.6165  163.8081 H       1  UNL1        0.1452
     30 H         144.6647  145.4648  162.1962 H       1  UNL1        0.1452
     31 N         139.2586  143.5992  164.2269 N.pl3   1  UNL1       -0.2812
     32 H         138.5456  144.2673  164.3472 H       1  UNL1        0.1551
     33 N         138.9082  140.1181  165.9074 N.ar    1  UNL1       -0.3190
     34 C         138.6184  141.0636  164.7796 C.ar    1  UNL1        0.0912
     35 C         139.2877  142.3704  165.0865 C.ar    1  UNL1        0.0701
     36 C         139.9912  142.2325  166.4042 C.ar    1  UNL1        0.0440
     37 C         139.7567  140.8406  166.9115 C.ar    1  UNL1        0.1309
     38 C         137.4583  138.3124  167.0853 C.3     1  UNL1        0.0245
     39 C         138.4330  138.6992  166.0127 C.3     1  UNL1        0.0863
     40 C         138.9325  137.6673  165.0455 C.3     1  UNL1        0.0245
     41 C         140.2789  140.2711  168.1972 C.1     1  UNL1        0.1180
     42 N         140.8012  139.7016  169.4828 N.1     1  UNL1       -0.1893
     43 C         141.5163  140.7021  159.9695 C.3     1  UNL1        0.1651
     44 O         140.5487  140.2397  161.0183 O.3     1  UNL1       -0.3772
     45 H         140.3187  140.9838  161.5967 H       1  UNL1        0.2109
@<TRIPOS>BOND
     1    38    39    1
     2    39    40    1
     3    39    33    1
     4    33    34   ar
     5    34    35   ar
     6    35    31    1
     7    31    22    1
     8    22    23   ar
     9    23    24   ar
    10    24    25    1
    11    24    26   ar
    12    26    27   ar
    13    27     1    1
    14     1     2   ar
    15     2     3   ar
    16     3     4   ar
    17     4     5   ar
    18     5     7    1
    19     7     8   ar
    20     8     9   ar
    21     9    10   ar
    22    10    11   ar
    23    11    12   ar
    24    12    19    1
    25    19    20    1
    26    20    21    1
    27    12    13   ar
    28    13    14   ar
    29    14    15    1
    30    14    16   ar
    31    16    17   ar
    32    17    18    2
    33     5     6   ar
    34     6    43    1
    35    43    44    1
    36    27    28   ar
    37    35    36   ar
    38    36    37   ar
    39    37    41    1
    40    41    42    3
    41    37    33   ar
    42    28    22   ar
    43     6     1   ar
    44    17     7   ar
    45    16    10   ar
    46    21    19    1
    47    31    32    1
    48    25    29    1
    49    25    30    1
    50    44    45    1
@<TRIPOS>MOLECULE
*****
 45 50 0 0 0
SMALL
GASTEIGER

@<TRIPOS>ATOM
      1 C         139.7889  140.9284  158.2180 C.ar    1  UNL1        0.0358
      2 C         141.0829  140.4300  157.6461 C.ar    1  UNL1        0.0029
      3 C         142.2142  140.0618  158.5598 C.ar    1  UNL1        0.0016
      4 C         142.0514  140.1919  160.0452 C.ar    1  UNL1        0.0174
      5 C         140.7574  140.6903  160.6170 C.ar    1  UNL1        0.0653
      6 C         139.6261  141.0585  159.7035 C.ar    1  UNL1        0.0261
      7 N         140.5946  140.8205  162.1025 N.ar    1  UNL1       -0.2733
      8 C         141.0768  142.0552  162.8045 C.ar    1  UNL1        0.0829
      9 C         140.9140  142.1853  164.2899 C.ar    1  UNL1        0.0193
     10 C         140.2690  141.0807  165.0734 C.ar    1  UNL1        0.0080
     11 C         140.1063  141.2108  166.5589 C.ar    1  UNL1       -0.0039
     12 C         139.4613  140.1062  167.3423 C.ar    1  UNL1       -0.0203
     13 C         138.9792  138.8714  166.6403 C.ar    1  UNL1        0.0255
     14 C         139.1419  138.7412  165.1549 C.ar    1  UNL1        0.1444
     15 F         138.6598  137.5065  164.4529 F       1  UNL1       -0.2040
     16 C         139.7869  139.8459  164.3714 C.ar    1  UNL1        0.0839
     17 C         139.9497  139.7158  162.8860 C.ar    1  UNL1        0.2668
     18 O         139.4675  138.4810  162.1839 O.2     1  UNL1       -0.2665
     19 C         139.2986  140.2363  168.8278 C.3     1  UNL1        0.0224
     20 C         138.4266  140.1950  170.0476 C.3     1  UNL1        0.0047
     21 C         139.8886  140.5029  170.1808 C.3     1  UNL1        0.0047
     22 C         136.5403  140.6201  155.9594 C.ar    1  UNL1        0.2244
     23 N         136.3951  142.0331  155.4773 N.ar    1  UNL1       -0.1810
     24 C         137.3812  143.0778  155.9087 C.ar    1  UNL1        0.2174
     25 N         137.2360  144.4907  155.4266 N.pl3   1  UNL1       -0.3273
     26 N         138.5125  142.7095  156.8223 N.ar    1  UNL1       -0.1948
     27 C         138.6576  141.2966  157.3044 C.ar    1  UNL1        0.1678
     28 N         137.6715  140.2519  156.8730 N.ar    1  UNL1       -0.1943
     29 H         136.4935  144.7324  154.8270 H       1  UNL1        0.1452
     30 H         137.8833  145.1764  155.7097 H       1  UNL1        0.1452
     31 N         135.5541  139.5753  155.5280 N.pl3   1  UNL1       -0.2812
     32 H         135.8706  138.7445  155.1053 H       1  UNL1        0.1551
     33 N         131.7765  139.4731  156.4134 N.ar    1  UNL1       -0.3190
     34 C         133.1420  138.8525  156.4246 C.ar    1  UNL1        0.0912
     35 C         134.0859  139.7966  155.7407 C.ar    1  UNL1        0.0701
     36 C         133.3037  141.0007  155.3068 C.ar    1  UNL1        0.0440
     37 C         131.8764  140.8008  155.7225 C.ar    1  UNL1        0.1309
     38 C         130.1278  139.1896  158.4012 C.3     1  UNL1        0.0245
     39 C         130.5299  138.8717  156.9916 C.3     1  UNL1        0.0863
     40 C         129.6854  137.9522  156.1601 C.3     1  UNL1        0.0245
     41 C         130.7473  141.7602  155.4885 C.1     1  UNL1        0.1180
     42 N         129.6182  142.7195  155.2545 N.1     1  UNL1       -0.1893
     43 C         138.3321  141.5569  160.2753 C.3     1  UNL1        0.1651
     44 O         138.1445  143.0211  160.5422 O.3     1  UNL1       -0.3772
     45 H         138.7514  143.3020  161.2448 H       1  UNL1        0.2109
@<TRIPOS>BOND
     1    38    39    1
     2    39    40    1
     3    39    33    1
     4    33    34   ar
     5    34    35   ar
     6    35    31    1
     7    31    22    1
     8    22    23   ar
     9    23    24   ar
    10    24    25    1
    11    24    26   ar
    12    26    27   ar
    13    27     1    1
    14     1     2   ar
    15     2     3   ar
    16     3     4   ar
    17     4     5   ar
    18     5     7    1
    19     7     8   ar
    20     8     9   ar
    21     9    10   ar
    22    10    11   ar
    23    11    12   ar
    24    12    19    1
    25    19    20    1
    26    20    21    1
    27    12    13   ar
    28    13    14   ar
    29    14    15    1
    30    14    16   ar
    31    16    17   ar
    32    17    18    2
    33     5     6   ar
    34     6    43    1
    35    43    44    1
    36    27    28   ar
    37    35    36   ar
    38    36    37   ar
    39    37    41    1
    40    41    42    3
    41    37    33   ar
    42    28    22   ar
    43     6     1   ar
    44    17     7   ar
    45    16    10   ar
    46    21    19    1
    47    31    32    1
    48    25    29    1
    49    25    30    1
    50    44    45    1
@<TRIPOS>MOLECULE
*****
 45 50 0 0 0
SMALL
GASTEIGER

@<TRIPOS>ATOM
      1 C         140.4939  139.7229  157.9582 C.ar    1  UNL1        0.0358
      2 C         139.2663  140.2113  157.2480 C.ar    1  UNL1        0.0029
      3 C         138.0319  140.5497  158.0302 C.ar    1  UNL1        0.0016
      4 C         138.0252  140.3996  159.5227 C.ar    1  UNL1        0.0174
      5 C         139.2528  139.9112  160.2329 C.ar    1  UNL1        0.0653
      6 C         140.4871  139.5728  159.4507 C.ar    1  UNL1        0.0261
      7 N         139.2460  139.7611  161.7254 N.ar    1  UNL1       -0.2733
      8 C         138.8058  138.4690  162.3473 C.ar    1  UNL1        0.0829
      9 C         138.7990  138.3190  163.8397 C.ar    1  UNL1        0.0193
     10 C         139.2324  139.4610  164.7103 C.ar    1  UNL1        0.0080
     11 C         139.2256  139.3110  166.2028 C.ar    1  UNL1       -0.0039
     12 C         139.6590  140.4530  167.0733 C.ar    1  UNL1       -0.0203
     13 C         140.0992  141.7451  166.4514 C.ar    1  UNL1        0.0255
     14 C         140.1060  141.8951  164.9590 C.ar    1  UNL1        0.1444
     15 F         140.5462  143.1872  164.3371 F       1  UNL1       -0.2040
     16 C         139.6726  140.7531  164.0884 C.ar    1  UNL1        0.0839
     17 C         139.6794  140.9031  162.5960 C.ar    1  UNL1        0.2668
     18 O         140.1196  142.1952  161.9740 O.2     1  UNL1       -0.2665
     19 C         139.6523  140.3030  168.5658 C.3     1  UNL1        0.0224
     20 C         138.9139  140.3334  169.8711 C.3     1  UNL1        0.0047
     21 C         140.3789  140.0127  169.8455 C.3     1  UNL1        0.0047
     22 C         142.9252  137.9499  155.3708 C.ar    1  UNL1        0.2244
     23 N         144.1971  138.7079  155.6116 N.ar    1  UNL1       -0.1810
     24 C         144.2344  139.8043  156.6346 C.ar    1  UNL1        0.2174
     25 N         145.5061  140.5624  156.8755 N.pl3   1  UNL1       -0.3273
     26 N         143.0000  140.1426  157.4168 N.ar    1  UNL1       -0.1948
     27 C         141.7283  139.3846  157.1760 C.ar    1  UNL1        0.1678
     28 N         141.6909  138.2882  156.1530 N.ar    1  UNL1       -0.1943
     29 H         146.3163  140.3403  156.3621 H       1  UNL1        0.1452
     30 H         145.5307  141.2820  157.5469 H       1  UNL1        0.1452
     31 N         142.8879  136.8535  154.3478 N.pl3   1  UNL1       -0.2812
     32 H         142.7270  137.0692  153.4008 H       1  UNL1        0.1551
     33 N         143.0060  133.0039  154.8294 N.ar    1  UNL1       -0.3190
     34 C         142.5558  134.2159  154.0690 C.ar    1  UNL1        0.0912
     35 C         143.0955  135.4285  154.7677 C.ar    1  UNL1        0.0701
     36 C         143.8794  134.9660  155.9600 C.ar    1  UNL1        0.0440
     37 C         143.8242  133.4675  155.9982 C.ar    1  UNL1        0.1309
     38 C         141.5945  130.8549  155.2026 C.3     1  UNL1        0.0245
     39 C         142.6932  131.5786  154.4821 C.3     1  UNL1        0.0863
     40 C         143.4790  130.8770  153.4144 C.3     1  UNL1        0.0245
     41 C         144.4730  132.5871  157.0248 C.1     1  UNL1        0.1180
     42 N         145.1218  131.7068  158.0514 N.1     1  UNL1       -0.1893
     43 C         141.7147  139.0844  160.1609 C.3     1  UNL1        0.1651
     44 O         142.8228  140.0413  160.4876 O.3     1  UNL1       -0.3772
     45 H         143.2270  140.3606  159.6657 H       1  UNL1        0.2109
@<TRIPOS>BOND
     1    38    39    1
     2    39    40    1
     3    39    33    1
     4    33    34   ar
     5    34    35   ar
     6    35    31    1
     7    31    22    1
     8    22    23   ar
     9    23    24   ar
    10    24    25    1
    11    24    26   ar
    12    26    27   ar
    13    27     1    1
    14     1     2   ar
    15     2     3   ar
    16     3     4   ar
    17     4     5   ar
    18     5     7    1
    19     7     8   ar
    20     8     9   ar
    21     9    10   ar
    22    10    11   ar
    23    11    12   ar
    24    12    19    1
    25    19    20    1
    26    20    21    1
    27    12    13   ar
    28    13    14   ar
    29    14    15    1
    30    14    16   ar
    31    16    17   ar
    32    17    18    2
    33     5     6   ar
    34     6    43    1
    35    43    44    1
    36    27    28   ar
    37    35    36   ar
    38    36    37   ar
    39    37    41    1
    40    41    42    3
    41    37    33   ar
    42    28    22   ar
    43     6     1   ar
    44    17     7   ar
    45    16    10   ar
    46    21    19    1
    47    31    32    1
    48    25    29    1
    49    25    30    1
    50    44    45    1
@<TRIPOS>MOLECULE
*****
 45 50 0 0 0
SMALL
GASTEIGER

@<TRIPOS>ATOM
      1 C         141.6151  141.2313  160.3879 C.ar    1  UNL1        0.0358
      2 C         142.8765  142.0422  160.4246 C.ar    1  UNL1        0.0029
      3 C         143.9586  141.7920  159.4163 C.ar    1  UNL1        0.0016
      4 C         143.7792  140.7310  158.3713 C.ar    1  UNL1        0.0174
      5 C         142.5178  139.9201  158.3346 C.ar    1  UNL1        0.0653
      6 C         141.4358  140.1703  159.3428 C.ar    1  UNL1        0.0261
      7 N         142.3384  138.8591  157.2895 N.ar    1  UNL1       -0.2733
      8 C         141.8015  139.2219  155.9368 C.ar    1  UNL1        0.0829
      9 C         141.6222  138.1609  154.8918 C.ar    1  UNL1        0.0193
     10 C         141.9798  136.7370  155.1996 C.ar    1  UNL1        0.0080
     11 C         141.8004  135.6759  154.1545 C.ar    1  UNL1       -0.0039
     12 C         142.1580  134.2521  154.4623 C.ar    1  UNL1       -0.0203
     13 C         142.6950  133.8893  155.8152 C.ar    1  UNL1        0.0255
     14 C         142.8743  134.9503  156.8602 C.ar    1  UNL1        0.1444
     15 F         143.4112  134.5875  158.2129 F       1  UNL1       -0.2040
     16 C         142.5167  136.3742  156.5524 C.ar    1  UNL1        0.0839
     17 C         142.6960  137.4352  157.5973 C.ar    1  UNL1        0.2668
     18 O         143.2330  137.0724  158.9502 O.2     1  UNL1       -0.2665
     19 C         141.9787  133.1910  153.4174 C.3     1  UNL1        0.0224
     20 C         141.8102  131.7471  153.0478 C.3     1  UNL1        0.0047
     21 C         141.8366  132.7972  151.9770 C.3     1  UNL1        0.0047
     22 C         139.2559  140.7795  163.5469 C.ar    1  UNL1        0.2244
     23 N         138.3690  141.9818  163.4127 N.ar    1  UNL1       -0.1810
     24 C         138.5642  142.9340  162.2702 C.ar    1  UNL1        0.2174
     25 N         137.6774  144.1362  162.1359 N.pl3   1  UNL1       -0.3273
     26 N         139.6463  142.6838  161.2619 N.ar    1  UNL1       -0.1948
     27 C         140.5331  141.4815  161.3961 C.ar    1  UNL1        0.1678
     28 N         140.3379  140.5293  162.5386 N.ar    1  UNL1       -0.1943
     29 H         136.9673  144.3004  162.7977 H       1  UNL1        0.1452
     30 H         137.8056  144.7612  161.3860 H       1  UNL1        0.1452
     31 N         139.0606  139.8273  164.6894 N.pl3   1  UNL1       -0.2812
     32 H         138.6713  138.9377  164.5277 H       1  UNL1        0.1551
     33 N         140.4487  141.4367  167.9372 N.ar    1  UNL1       -0.3190
     34 C         140.3035  141.4147  166.4444 C.ar    1  UNL1        0.0912
     35 C         139.4586  140.2307  166.0782 C.ar    1  UNL1        0.0701
     36 C         139.0815  139.5208  167.3447 C.ar    1  UNL1        0.0440
     37 C         139.6934  140.2661  168.4937 C.ar    1  UNL1        0.1309
     38 C         142.7064  142.3441  168.8480 C.3     1  UNL1        0.0245
     39 C         141.2146  142.4510  168.7338 C.3     1  UNL1        0.0863
     40 C         140.4887  143.5723  169.4162 C.3     1  UNL1        0.0245
     41 C         139.5714  139.9045  169.9443 C.1     1  UNL1        0.1180
     42 N         139.4495  139.5428  171.3949 N.1     1  UNL1       -0.1893
     43 C         140.1744  139.3594  159.3061 C.3     1  UNL1        0.1651
     44 O         139.9628  138.2561  160.3001 O.3     1  UNL1       -0.3772
     45 H         140.6126  137.5526  160.1456 H       1  UNL1        0.2109
@<TRIPOS>BOND
     1    38    39    1
     2    39    40    1
     3    39    33    1
     4    33    34   ar
     5    34    35   ar
     6    35    31    1
     7    31    22    1
     8    22    23   ar
     9    23    24   ar
    10    24    25    1
    11    24    26   ar
    12    26    27   ar
    13    27     1    1
    14     1     2   ar
    15     2     3   ar
    16     3     4   ar
    17     4     5   ar
    18     5     7    1
    19     7     8   ar
    20     8     9   ar
    21     9    10   ar
    22    10    11   ar
    23    11    12   ar
    24    12    19    1
    25    19    20    1
    26    20    21    1
    27    12    13   ar
    28    13    14   ar
    29    14    15    1
    30    14    16   ar
    31    16    17   ar
    32    17    18    2
    33     5     6   ar
    34     6    43    1
    35    43    44    1
    36    27    28   ar
    37    35    36   ar
    38    36    37   ar
    39    37    41    1
    40    41    42    3
    41    37    33   ar
    42    28    22   ar
    43     6     1   ar
    44    17     7   ar
    45    16    10   ar
    46    21    19    1
    47    31    32    1
    48    25    29    1
    49    25    30    1
    50    44    45    1
@<TRIPOS>MOLECULE
*****
 45 50 0 0 0
SMALL
GASTEIGER

@<TRIPOS>ATOM
      1 C         139.2674  143.2183  158.3034 C.ar    1  UNL1        0.0358
      2 C         139.9636  144.3880  157.6731 C.ar    1  UNL1        0.0029
      3 C         140.6040  145.4340  158.5367 C.ar    1  UNL1        0.0016
      4 C         140.5481  145.3105  160.0305 C.ar    1  UNL1        0.0174
      5 C         139.8520  144.1408  160.6608 C.ar    1  UNL1        0.0653
      6 C         139.2116  143.0948  159.7973 C.ar    1  UNL1        0.0261
      7 N         139.7961  144.0173  162.1548 N.ar    1  UNL1       -0.2733
      8 C         138.7030  144.6987  162.9233 C.ar    1  UNL1        0.0829
      9 C         138.6472  144.5751  164.4172 C.ar    1  UNL1        0.0193
     10 C         139.6846  143.7702  165.1424 C.ar    1  UNL1        0.0080
     11 C         139.6287  143.6466  166.6363 C.ar    1  UNL1       -0.0039
     12 C         140.6661  142.8417  167.3616 C.ar    1  UNL1       -0.0203
     13 C         141.7593  142.1603  166.5929 C.ar    1  UNL1        0.0255
     14 C         141.8151  142.2839  165.0991 C.ar    1  UNL1        0.1444
     15 F         142.9082  141.6025  164.3305 F       1  UNL1       -0.2040
     16 C         140.7777  143.0888  164.3738 C.ar    1  UNL1        0.0839
     17 C         140.8335  143.2124  162.8800 C.ar    1  UNL1        0.2668
     18 O         141.9267  142.5310  162.1114 O.2     1  UNL1       -0.2665
     19 C         140.6103  142.7182  168.8554 C.3     1  UNL1        0.0224
     20 C         141.2615  142.8773  170.1973 C.3     1  UNL1        0.0047
     21 C         139.8625  142.3449  170.1010 C.3     1  UNL1        0.0047
     22 C         136.7421  141.4500  155.8043 C.ar    1  UNL1        0.2244
     23 N         137.3464  140.0801  155.7129 N.ar    1  UNL1       -0.1810
     24 C         138.5910  139.7563  156.4850 C.ar    1  UNL1        0.2174
     25 N         139.1953  138.3865  156.3935 N.pl3   1  UNL1       -0.3273
     26 N         139.2314  140.8025  157.3485 N.ar    1  UNL1       -0.1948
     27 C         138.6271  142.1723  157.4399 C.ar    1  UNL1        0.1678
     28 N         137.3825  142.4961  156.6678 N.ar    1  UNL1       -0.1943
     29 H         138.7750  137.6999  155.8268 H       1  UNL1        0.1452
     30 H         140.0122  138.1740  156.9003 H       1  UNL1        0.1452
     31 N         135.4975  141.7738  155.0322 N.pl3   1  UNL1       -0.2812
     32 H         135.5452  142.3663  154.2475 H       1  UNL1        0.1551
     33 N         132.5109  139.7407  156.4505 N.ar    1  UNL1       -0.3190
     34 C         133.9848  139.9435  156.2596 C.ar    1  UNL1        0.0912
     35 C         134.1802  141.1947  155.4558 C.ar    1  UNL1        0.0701
     36 C         132.8271  141.7653  155.1499 C.ar    1  UNL1        0.0440
     37 C         131.7954  140.8667  155.7647 C.ar    1  UNL1        0.1309
     38 C         130.5798  138.0203  156.6981 C.3     1  UNL1        0.0245
     39 C         131.8657  138.6104  157.1964 C.3     1  UNL1        0.0863
     40 C         132.5064  138.0703  158.4405 C.3     1  UNL1        0.0245
     41 C         130.3091  141.0600  155.7042 C.1     1  UNL1        0.1180
     42 N         128.8229  141.2533  155.6437 N.1     1  UNL1       -0.1893
     43 C         138.5154  141.9252  160.4277 C.3     1  UNL1        0.1651
     44 O         139.1992  140.5917  160.4933 O.3     1  UNL1       -0.3772
     45 H         139.3185  140.2449  159.5952 H       1  UNL1        0.2109
@<TRIPOS>BOND
     1    38    39    1
     2    39    40    1
     3    39    33    1
     4    33    34   ar
     5    34    35   ar
     6    35    31    1
     7    31    22    1
     8    22    23   ar
     9    23    24   ar
    10    24    25    1
    11    24    26   ar
    12    26    27   ar
    13    27     1    1
    14     1     2   ar
    15     2     3   ar
    16     3     4   ar
    17     4     5   ar
    18     5     7    1
    19     7     8   ar
    20     8     9   ar
    21     9    10   ar
    22    10    11   ar
    23    11    12   ar
    24    12    19    1
    25    19    20    1
    26    20    21    1
    27    12    13   ar
    28    13    14   ar
    29    14    15    1
    30    14    16   ar
    31    16    17   ar
    32    17    18    2
    33     5     6   ar
    34     6    43    1
    35    43    44    1
    36    27    28   ar
    37    35    36   ar
    38    36    37   ar
    39    37    41    1
    40    41    42    3
    41    37    33   ar
    42    28    22   ar
    43     6     1   ar
    44    17     7   ar
    45    16    10   ar
    46    21    19    1
    47    31    32    1
    48    25    29    1
    49    25    30    1
    50    44    45    1
@<TRIPOS>MOLECULE
*****
 45 50 0 0 0
SMALL
GASTEIGER

@<TRIPOS>ATOM
      1 C         142.4450  142.2776  159.2364 C.ar    1  UNL1        0.0358
      2 C         141.9024  143.5730  158.7095 C.ar    1  UNL1        0.0029
      3 C         141.4718  144.6486  159.6622 C.ar    1  UNL1        0.0016
      4 C         141.5837  144.4288  161.1418 C.ar    1  UNL1        0.0174
      5 C         142.1263  143.1334  161.6687 C.ar    1  UNL1        0.0653
      6 C         142.5569  142.0578  160.7160 C.ar    1  UNL1        0.0261
      7 N         142.2382  142.9136  163.1483 N.ar    1  UNL1       -0.2733
      8 C         143.5143  143.2486  163.8619 C.ar    1  UNL1        0.0829
      9 C         143.6261  143.0289  165.3415 C.ar    1  UNL1        0.0193
     10 C         142.4619  142.4741  166.1074 C.ar    1  UNL1        0.0080
     11 C         142.5738  142.2543  167.5871 C.ar    1  UNL1       -0.0039
     12 C         141.4095  141.6996  168.3530 C.ar    1  UNL1       -0.0203
     13 C         140.1333  141.3646  167.6394 C.ar    1  UNL1        0.0255
     14 C         140.0215  141.5843  166.1598 C.ar    1  UNL1        0.1444
     15 F         138.7454  141.2493  165.4462 F       1  UNL1       -0.2040
     16 C         141.1857  142.1391  165.3938 C.ar    1  UNL1        0.0839
     17 C         141.0739  142.3589  163.9143 C.ar    1  UNL1        0.2668
     18 O         139.7977  142.0239  163.2006 O.2     1  UNL1       -0.2665
     19 C         141.5213  141.4798  169.8326 C.3     1  UNL1        0.0224
     20 C         141.3651  140.5886  171.0290 C.3     1  UNL1        0.0047
     21 C         141.8713  141.9903  171.1989 C.3     1  UNL1        0.0047
     22 C         142.3665  139.0091  156.9868 C.ar    1  UNL1        0.2244
     23 N         143.7370  139.0508  156.3783 N.ar    1  UNL1       -0.1810
     24 C         144.6768  140.1681  156.7226 C.ar    1  UNL1        0.2174
     25 N         146.0472  140.2098  156.1141 N.pl3   1  UNL1       -0.3273
     26 N         144.2460  141.2437  157.6753 N.ar    1  UNL1       -0.1948
     27 C         142.8756  141.2020  158.2837 C.ar    1  UNL1        0.1678
     28 N         141.9359  140.0847  157.9395 N.ar    1  UNL1       -0.1943
     29 H         146.3298  139.5039  155.4889 H       1  UNL1        0.1452
     30 H         146.6639  140.9432  156.3401 H       1  UNL1        0.1452
     31 N         141.4268  137.8918  156.6426 N.pl3   1  UNL1       -0.2812
     32 H         140.4703  138.0785  156.5027 H       1  UNL1        0.1551
     33 N         142.2730  134.2140  155.7355 N.ar    1  UNL1       -0.3190
     34 C         141.4919  135.4737  155.5053 C.ar    1  UNL1        0.0912
     35 C         141.9443  136.4901  156.5115 C.ar    1  UNL1        0.0701
     36 C         143.0050  135.8585  157.3636 C.ar    1  UNL1        0.0440
     37 C         143.2082  134.4518  156.8840 C.ar    1  UNL1        0.1309
     38 C         141.8757  131.6474  155.6671 C.3     1  UNL1        0.0245
     39 C         142.1420  132.9402  154.9544 C.3     1  UNL1        0.0863
     40 C         142.2773  132.9590  153.4607 C.3     1  UNL1        0.0245
     41 C         144.1766  133.4576  157.4530 C.1     1  UNL1        0.1180
     42 N         145.1449  132.4633  158.0220 N.1     1  UNL1       -0.1893
     43 C         143.0995  140.7624  161.2429 C.3     1  UNL1        0.1651
     44 O         144.5352  140.6679  161.6671 O.3     1  UNL1       -0.3772
     45 H         145.1091  140.7815  160.8935 H       1  UNL1        0.2109
@<TRIPOS>BOND
     1    38    39    1
     2    39    40    1
     3    39    33    1
     4    33    34   ar
     5    34    35   ar
     6    35    31    1
     7    31    22    1
     8    22    23   ar
     9    23    24   ar
    10    24    25    1
    11    24    26   ar
    12    26    27   ar
    13    27     1    1
    14     1     2   ar
    15     2     3   ar
    16     3     4   ar
    17     4     5   ar
    18     5     7    1
    19     7     8   ar
    20     8     9   ar
    21     9    10   ar
    22    10    11   ar
    23    11    12   ar
    24    12    19    1
    25    19    20    1
    26    20    21    1
    27    12    13   ar
    28    13    14   ar
    29    14    15    1
    30    14    16   ar
    31    16    17   ar
    32    17    18    2
    33     5     6   ar
    34     6    43    1
    35    43    44    1
    36    27    28   ar
    37    35    36   ar
    38    36    37   ar
    39    37    41    1
    40    41    42    3
    41    37    33   ar
    42    28    22   ar
    43     6     1   ar
    44    17     7   ar
    45    16    10   ar
    46    21    19    1
    47    31    32    1
    48    25    29    1
    49    25    30    1
    50    44    45    1
