@<TRIPOS>MOLECULE
*****
 33 37 0 0 0
SMALL
GASTEIGER

@<TRIPOS>ATOM
      1 N         142.1768  137.9446  164.0952 N.3     1  UNL1       -0.2723
      2 C         142.5814  138.1327  162.6631 C.3     1  UNL1        0.0735
      3 C         143.7190  139.0478  162.3191 C.3     1  UNL1        0.0331
      4 C         144.4520  139.7750  163.4073 C.3     1  UNL1        0.0570
      5 C         144.0474  139.5870  164.8394 C.3     1  UNL1        0.0331
      6 C         142.9098  138.6718  165.1833 C.3     1  UNL1        0.0735
      7 N         145.5896  140.6902  163.0633 N.3     1  UNL1       -0.2947
      8 H         145.6680  140.6931  162.0463 H       1  UNL1        0.1235
      9 C         145.5560  142.1251  163.4991 C.3     1  UNL1        0.0957
     10 C         144.3145  142.9419  163.2955 C.ar    1  UNL1       -0.0032
     11 C         143.5125  143.3953  164.4793 C.ar    1  UNL1        0.0004
     12 C         142.2710  144.2121  164.2757 C.ar    1  UNL1        0.0398
     13 C         141.8314  144.5755  162.8883 C.ar    1  UNL1        0.1724
     14 C         142.6333  144.1220  161.7046 C.ar    1  UNL1        0.1721
     15 C         143.8749  143.3052  161.9081 C.ar    1  UNL1        0.0371
     16 O         142.1937  144.4854  160.3172 O.3     1  UNL1       -0.4684
     17 C         140.9522  145.3022  160.1136 C.3     1  UNL1        0.2526
     18 C         140.1503  145.7557  161.2974 C.3     1  UNL1        0.2526
     19 O         140.5898  145.3923  162.6847 O.3     1  UNL1       -0.4684
     20 C         141.0392  137.0295  164.4392 C.3     1  UNL1        0.0768
     21 C         139.6934  137.5998  164.7763 C.3     1  UNL1        0.0438
     22 C         139.5577  141.9992  165.7128 C.ar    1  UNL1        0.1388
     23 C         138.8860  142.9475  164.7644 C.ar    1  UNL1        0.0384
     24 C         138.2596  142.4293  163.5038 C.ar    1  UNL1        0.0222
     25 C         138.3048  140.9629  163.1916 C.ar    1  UNL1        0.0812
     26 N         137.6784  140.4448  161.9310 N.ar    1  UNL1       -0.2439
     27 C         137.7236  138.9783  161.6189 C.ar    1  UNL1        0.0985
     28 C         138.3953  138.0299  162.5673 C.ar    1  UNL1        0.0165
     29 C         139.0217  138.5481  163.8279 C.ar    1  UNL1       -0.0177
     30 C         138.9765  140.0146  164.1401 C.ar    1  UNL1        0.0168
     31 C         139.6029  140.5327  165.4007 C.ar    1  UNL1        0.0381
     32 C         141.5597  142.0673  167.3672 C.3     1  UNL1        0.2525
     33 O         140.1841  142.5173  166.9734 O.3     1  UNL1       -0.4714
@<TRIPOS>BOND
     1    32    33    1
     2    33    22    1
     3    22    23   ar
     4    23    24   ar
     5    24    25   ar
     6    25    26   ar
     7    26    27   ar
     8    27    28   ar
     9    28    29   ar
    10    29    21    1
    11    21    20    1
    12    20     1    1
    13     1     2    1
    14     2     3    1
    15     3     4    1
    16     4     7    1
    17     7     9    1
    18     9    10    1
    19    10    11   ar
    20    11    12   ar
    21    12    13   ar
    22    13    14   ar
    23    14    15   ar
    24    14    16    1
    25    16    17    1
    26    17    18    1
    27    18    19    1
    28     4     5    1
    29     5     6    1
    30    29    30   ar
    31    30    31   ar
    32    31    22   ar
    33    30    25   ar
    34     6     1    1
    35    15    10   ar
    36    19    13    1
    37     7     8    1
@<TRIPOS>MOLECULE
*****
 33 37 0 0 0
SMALL
GASTEIGER

@<TRIPOS>ATOM
      1 N         139.0971  143.9562  162.7093 N.3     1  UNL1       -0.2723
      2 C         139.6705  144.6972  163.8807 C.3     1  UNL1        0.0735
      3 C         141.1090  145.1223  163.8680 C.3     1  UNL1        0.0331
      4 C         141.9740  144.8064  162.6839 C.3     1  UNL1        0.0570
      5 C         141.4006  144.0654  161.5126 C.3     1  UNL1        0.0331
      6 C         139.9620  143.6403  161.5253 C.3     1  UNL1        0.0735
      7 N         143.4124  145.2315  162.6712 N.3     1  UNL1       -0.2947
      8 H         143.4210  146.2450  162.7859 H       1  UNL1        0.1235
      9 C         144.3685  144.6731  163.6833 C.3     1  UNL1        0.0957
     10 C         144.3538  143.2070  163.9999 C.ar    1  UNL1       -0.0032
     11 C         145.1141  142.2453  163.1354 C.ar    1  UNL1        0.0004
     12 C         145.0994  140.7793  163.4521 C.ar    1  UNL1        0.0398
     13 C         144.3244  140.2747  164.6331 C.ar    1  UNL1        0.1724
     14 C         143.5641  141.2363  165.4976 C.ar    1  UNL1        0.1721
     15 C         143.5788  142.7025  165.1810 C.ar    1  UNL1        0.0371
     16 O         142.7892  140.7318  166.6786 O.3     1  UNL1       -0.4684
     17 C         142.7745  139.2657  166.9952 C.3     1  UNL1        0.2526
     18 C         143.5348  138.3040  166.1308 C.3     1  UNL1        0.2526
     19 O         144.3097  138.8086  164.9497 O.3     1  UNL1       -0.4684
     20 C         137.6587  143.5312  162.7220 C.3     1  UNL1        0.0768
     21 C         137.2641  142.2391  163.3740 C.3     1  UNL1        0.0438
     22 C         138.5635  138.8904  166.0847 C.ar    1  UNL1        0.1388
     23 C         139.0180  137.5859  165.5002 C.ar    1  UNL1        0.0384
     24 C         139.0394  137.3976  164.0122 C.ar    1  UNL1        0.0222
     25 C         138.6063  138.5138  163.1087 C.ar    1  UNL1        0.0812
     26 N         138.6276  138.3255  161.6207 N.ar    1  UNL1       -0.2439
     27 C         138.1945  139.4417  160.7172 C.ar    1  UNL1        0.0985
     28 C         137.7400  140.7463  161.3016 C.ar    1  UNL1        0.0165
     29 C         137.7186  140.9346  162.7896 C.ar    1  UNL1       -0.0177
     30 C         138.1518  139.8183  163.6931 C.ar    1  UNL1        0.0168
     31 C         138.1304  140.0066  165.1811 C.ar    1  UNL1        0.0381
     32 C         139.4303  140.1048  168.2116 C.3     1  UNL1        0.2525
     33 O         138.5422  139.0787  167.5726 O.3     1  UNL1       -0.4714
@<TRIPOS>BOND
     1    32    33    1
     2    33    22    1
     3    22    23   ar
     4    23    24   ar
     5    24    25   ar
     6    25    26   ar
     7    26    27   ar
     8    27    28   ar
     9    28    29   ar
    10    29    21    1
    11    21    20    1
    12    20     1    1
    13     1     2    1
    14     2     3    1
    15     3     4    1
    16     4     7    1
    17     7     9    1
    18     9    10    1
    19    10    11   ar
    20    11    12   ar
    21    12    13   ar
    22    13    14   ar
    23    14    15   ar
    24    14    16    1
    25    16    17    1
    26    17    18    1
    27    18    19    1
    28     4     5    1
    29     5     6    1
    30    29    30   ar
    31    30    31   ar
    32    31    22   ar
    33    30    25   ar
    34     6     1    1
    35    15    10   ar
    36    19    13    1
    37     7     8    1
@<TRIPOS>MOLECULE
*****
 33 37 0 0 0
SMALL
GASTEIGER

@<TRIPOS>ATOM
      1 N         141.0341  144.8121  162.6859 N.3     1  UNL1       -0.2723
      2 C         141.2760  143.8949  161.5239 C.3     1  UNL1        0.0735
      3 C         142.6479  143.3398  161.2794 C.3     1  UNL1        0.0331
      4 C         143.7780  143.7019  162.1970 C.3     1  UNL1        0.0570
      5 C         143.5361  144.6191  163.3590 C.3     1  UNL1        0.0331
      6 C         142.1641  145.1742  163.6035 C.3     1  UNL1        0.0735
      7 N         145.1498  143.1469  161.9525 N.3     1  UNL1       -0.2947
      8 H         145.8123  143.8882  162.1805 H       1  UNL1        0.1235
      9 C         145.6040  141.9197  162.6859 C.3     1  UNL1        0.0957
     10 C         144.5978  141.0276  163.3503 C.ar    1  UNL1       -0.0032
     11 C         144.2844  141.2046  164.8066 C.ar    1  UNL1        0.0004
     12 C         143.2781  140.3125  165.4710 C.ar    1  UNL1        0.0398
     13 C         142.5852  139.2433  164.6793 C.ar    1  UNL1        0.1724
     14 C         142.8986  139.0663  163.2232 C.ar    1  UNL1        0.1721
     15 C         143.9049  139.9584  162.5586 C.ar    1  UNL1        0.0371
     16 O         142.2057  137.9971  162.4315 O.3     1  UNL1       -0.4684
     17 C         141.1994  137.1050  163.0959 C.3     1  UNL1        0.2526
     18 C         140.8860  137.2820  164.5521 C.3     1  UNL1        0.2526
     19 O         141.5789  138.3512  165.3438 O.3     1  UNL1       -0.4684
     20 C         139.6623  145.3672  162.9304 C.3     1  UNL1        0.0768
     21 C         138.8096  144.8033  164.0282 C.3     1  UNL1        0.0438
     22 C         140.3884  142.2834  167.4057 C.ar    1  UNL1        0.1388
     23 C         140.0931  140.8133  167.4462 C.ar    1  UNL1        0.0384
     24 C         139.2717  140.1832  166.3607 C.ar    1  UNL1        0.0222
     25 C         138.7455  141.0231  165.2349 C.ar    1  UNL1        0.0812
     26 N         137.9240  140.3930  164.1495 N.ar    1  UNL1       -0.2439
     27 C         137.3978  141.2329  163.0236 C.ar    1  UNL1        0.0985
     28 C         137.6930  142.7031  162.9832 C.ar    1  UNL1        0.0165
     29 C         138.5144  143.3332  164.0686 C.ar    1  UNL1       -0.0177
     30 C         139.0407  142.4932  165.1945 C.ar    1  UNL1        0.0168
     31 C         139.8621  143.1233  166.2799 C.ar    1  UNL1        0.0381
     32 C         140.5350  143.6425  169.6151 C.3     1  UNL1        0.2525
     33 O         141.2098  142.9136  168.4912 O.3     1  UNL1       -0.4714
@<TRIPOS>BOND
     1    32    33    1
     2    33    22    1
     3    22    23   ar
     4    23    24   ar
     5    24    25   ar
     6    25    26   ar
     7    26    27   ar
     8    27    28   ar
     9    28    29   ar
    10    29    21    1
    11    21    20    1
    12    20     1    1
    13     1     2    1
    14     2     3    1
    15     3     4    1
    16     4     7    1
    17     7     9    1
    18     9    10    1
    19    10    11   ar
    20    11    12   ar
    21    12    13   ar
    22    13    14   ar
    23    14    15   ar
    24    14    16    1
    25    16    17    1
    26    17    18    1
    27    18    19    1
    28     4     5    1
    29     5     6    1
    30    29    30   ar
    31    30    31   ar
    32    31    22   ar
    33    30    25   ar
    34     6     1    1
    35    15    10   ar
    36    19    13    1
    37     7     8    1
@<TRIPOS>MOLECULE
*****
 33 37 0 0 0
SMALL
GASTEIGER

@<TRIPOS>ATOM
      1 N         137.9019  142.9462  162.9151 N.3     1  UNL1       -0.2723
      2 C         138.0937  142.6266  161.4621 C.3     1  UNL1        0.0735
      3 C         138.0839  141.1994  161.0005 C.3     1  UNL1        0.0331
      4 C         137.8824  140.0918  161.9919 C.3     1  UNL1        0.0570
      5 C         137.6906  140.4115  163.4449 C.3     1  UNL1        0.0331
      6 C         137.7004  141.8388  163.9064 C.3     1  UNL1        0.0735
      7 N         137.8726  138.6647  161.5303 N.3     1  UNL1       -0.2947
      8 H         137.3051  138.6330  160.6834 H       1  UNL1        0.1235
      9 C         139.1637  137.9703  161.2127 C.3     1  UNL1        0.0957
     10 C         140.3677  138.1924  162.0793 C.ar    1  UNL1       -0.0032
     11 C         140.5138  137.4384  163.3678 C.ar    1  UNL1        0.0004
     12 C         141.7178  137.6605  164.2343 C.ar    1  UNL1        0.0398
     13 C         142.7758  138.6366  163.8125 C.ar    1  UNL1        0.1724
     14 C         142.6297  139.3906  162.5241 C.ar    1  UNL1        0.1721
     15 C         141.4256  139.1685  161.6574 C.ar    1  UNL1        0.0371
     16 O         143.6876  140.3667  162.1022 O.3     1  UNL1       -0.4684
     17 C         144.8916  140.5888  162.9688 C.3     1  UNL1        0.2526
     18 C         145.0378  139.8348  164.2573 C.3     1  UNL1        0.2526
     19 O         143.9798  138.8587  164.6791 O.3     1  UNL1       -0.4684
     20 C         137.9117  144.3734  163.3766 C.3     1  UNL1        0.0768
     21 C         138.9280  144.8298  164.3811 C.3     1  UNL1        0.0438
     22 C         140.8714  142.0160  167.3061 C.ar    1  UNL1        0.1388
     23 C         142.3134  141.6385  167.1386 C.ar    1  UNL1        0.0384
     24 C         143.1076  142.1990  165.9962 C.ar    1  UNL1        0.0222
     25 C         142.4599  143.1369  165.0213 C.ar    1  UNL1        0.0812
     26 N         143.2541  143.6974  163.8789 N.ar    1  UNL1       -0.2439
     27 C         142.6063  144.6353  162.9039 C.ar    1  UNL1        0.0985
     28 C         141.1642  145.0128  163.0713 C.ar    1  UNL1        0.0165
     29 C         140.3700  144.4524  164.2137 C.ar    1  UNL1       -0.0177
     30 C         141.0178  143.5144  165.1887 C.ar    1  UNL1        0.0168
     31 C         140.2236  142.9539  166.3311 C.ar    1  UNL1        0.0381
     32 C         139.5314  140.0606  168.3694 C.3     1  UNL1        0.2525
     33 O         140.0771  141.4555  168.4484 O.3     1  UNL1       -0.4714
@<TRIPOS>BOND
     1    32    33    1
     2    33    22    1
     3    22    23   ar
     4    23    24   ar
     5    24    25   ar
     6    25    26   ar
     7    26    27   ar
     8    27    28   ar
     9    28    29   ar
    10    29    21    1
    11    21    20    1
    12    20     1    1
    13     1     2    1
    14     2     3    1
    15     3     4    1
    16     4     7    1
    17     7     9    1
    18     9    10    1
    19    10    11   ar
    20    11    12   ar
    21    12    13   ar
    22    13    14   ar
    23    14    15   ar
    24    14    16    1
    25    16    17    1
    26    17    18    1
    27    18    19    1
    28     4     5    1
    29     5     6    1
    30    29    30   ar
    31    30    31   ar
    32    31    22   ar
    33    30    25   ar
    34     6     1    1
    35    15    10   ar
    36    19    13    1
    37     7     8    1
@<TRIPOS>MOLECULE
*****
 33 37 0 0 0
SMALL
GASTEIGER

@<TRIPOS>ATOM
      1 N         143.0750  143.9567  162.4745 N.3     1  UNL1       -0.2723
      2 C         142.2173  143.6434  161.2845 C.3     1  UNL1        0.0735
      3 C         140.7795  144.0704  161.2630 C.3     1  UNL1        0.0331
      4 C         140.1994  144.8107  162.4316 C.3     1  UNL1        0.0570
      5 C         141.0572  145.1240  163.6216 C.3     1  UNL1        0.0331
      6 C         142.4950  144.6970  163.6431 C.3     1  UNL1        0.0735
      7 N         138.7617  145.2376  162.4101 N.3     1  UNL1       -0.2947
      8 H         138.4909  145.3109  161.4295 H       1  UNL1        0.1235
      9 C         137.7193  144.3965  163.0855 C.3     1  UNL1        0.0957
     10 C         137.9981  142.9532  163.3839 C.ar    1  UNL1       -0.0032
     11 C         138.4816  142.5485  164.7450 C.ar    1  UNL1        0.0004
     12 C         138.7603  141.1052  165.0434 C.ar    1  UNL1        0.0398
     13 C         138.5555  140.0665  163.9808 C.ar    1  UNL1        0.1724
     14 C         138.0721  140.4711  162.6197 C.ar    1  UNL1        0.1721
     15 C         137.7933  141.9145  162.3213 C.ar    1  UNL1        0.0371
     16 O         137.8673  139.4324  161.5571 O.3     1  UNL1       -0.4684
     17 C         138.1461  137.9891  161.8555 C.3     1  UNL1        0.2526
     18 C         138.6296  137.5844  163.2166 C.3     1  UNL1        0.2526
     19 O         138.8343  138.6231  164.2793 O.3     1  UNL1       -0.4684
     20 C         144.5128  143.5298  162.4960 C.3     1  UNL1        0.0768
     21 C         144.9672  142.4735  163.4593 C.3     1  UNL1        0.0438
     22 C         142.4548  141.2912  167.0005 C.ar    1  UNL1        0.1388
     23 C         141.7739  139.9549  167.0243 C.ar    1  UNL1        0.0384
     24 C         141.9304  139.0127  165.8677 C.ar    1  UNL1        0.0222
     25 C         142.7679  139.4067  164.6873 C.ar    1  UNL1        0.0812
     26 N         142.9244  138.4645  163.5307 N.ar    1  UNL1       -0.2439
     27 C         143.7619  138.8586  162.3503 C.ar    1  UNL1        0.0985
     28 C         144.4428  140.1949  162.3265 C.ar    1  UNL1        0.0165
     29 C         144.2863  141.1372  163.4831 C.ar    1  UNL1       -0.0177
     30 C         143.4488  140.7430  164.6635 C.ar    1  UNL1        0.0168
     31 C         143.2923  141.6853  165.8201 C.ar    1  UNL1        0.0381
     32 C         143.3774  142.3337  169.1941 C.3     1  UNL1        0.2525
     33 O         142.2983  142.2334  168.1571 O.3     1  UNL1       -0.4714
@<TRIPOS>BOND
     1    32    33    1
     2    33    22    1
     3    22    23   ar
     4    23    24   ar
     5    24    25   ar
     6    25    26   ar
     7    26    27   ar
     8    27    28   ar
     9    28    29   ar
    10    29    21    1
    11    21    20    1
    12    20     1    1
    13     1     2    1
    14     2     3    1
    15     3     4    1
    16     4     7    1
    17     7     9    1
    18     9    10    1
    19    10    11   ar
    20    11    12   ar
    21    12    13   ar
    22    13    14   ar
    23    14    15   ar
    24    14    16    1
    25    16    17    1
    26    17    18    1
    27    18    19    1
    28     4     5    1
    29     5     6    1
    30    29    30   ar
    31    30    31   ar
    32    31    22   ar
    33    30    25   ar
    34     6     1    1
    35    15    10   ar
    36    19    13    1
    37     7     8    1
@<TRIPOS>MOLECULE
*****
 33 37 0 0 0
SMALL
GASTEIGER

@<TRIPOS>ATOM
      1 N         138.0012  139.8762  162.1878 N.3     1  UNL1       -0.2723
      2 C         138.3429  140.6822  160.9698 C.3     1  UNL1        0.0735
      3 C         138.2848  142.1802  161.0211 C.3     1  UNL1        0.0331
      4 C         137.8850  142.8722  162.2905 C.3     1  UNL1        0.0570
      5 C         137.5434  142.0662  163.5086 C.3     1  UNL1        0.0331
      6 C         137.6015  140.5682  163.4572 C.3     1  UNL1        0.0735
      7 N         137.8269  144.3702  162.3419 N.3     1  UNL1       -0.2947
      8 H         137.0496  144.6139  162.9557 H       1  UNL1        0.1235
      9 C         139.0159  145.1510  162.8180 C.3     1  UNL1        0.0957
     10 C         140.3085  144.4471  163.1072 C.ar    1  UNL1       -0.0032
     11 C         140.6145  143.9834  164.5006 C.ar    1  UNL1        0.0004
     12 C         141.9071  143.2795  164.7898 C.ar    1  UNL1        0.0398
     13 C         142.8938  143.0394  163.6858 C.ar    1  UNL1        0.1724
     14 C         142.5878  143.5031  162.2925 C.ar    1  UNL1        0.1721
     15 C         141.2951  144.2070  162.0032 C.ar    1  UNL1        0.0371
     16 O         143.5744  143.2630  161.1885 O.3     1  UNL1       -0.4684
     17 C         144.8670  142.5592  161.4777 C.3     1  UNL1        0.2526
     18 C         145.1731  142.0954  162.8710 C.3     1  UNL1        0.2526
     19 O         144.1864  142.3355  163.9751 O.3     1  UNL1       -0.4684
     20 C         138.0593  138.3783  162.1365 C.3     1  UNL1        0.0768
     21 C         138.9262  137.6277  163.1036 C.3     1  UNL1        0.0438
     22 C         140.2745  139.6961  166.8657 C.ar    1  UNL1        0.1388
     23 C         141.7146  140.0797  167.0358 C.ar    1  UNL1        0.0384
     24 C         142.7053  139.7738  165.9518 C.ar    1  UNL1        0.0222
     25 C         142.2559  139.0844  164.6978 C.ar    1  UNL1        0.0812
     26 N         143.2466  138.7785  163.6138 N.ar    1  UNL1       -0.2439
     27 C         142.7972  138.0890  162.3598 C.ar    1  UNL1        0.0985
     28 C         141.3570  137.7054  162.1897 C.ar    1  UNL1        0.0165
     29 C         140.3663  138.0113  163.2737 C.ar    1  UNL1       -0.0177
     30 C         140.8158  138.7008  164.5277 C.ar    1  UNL1        0.0168
     31 C         139.8251  139.0067  165.6117 C.ar    1  UNL1        0.0381
     32 C         139.7603  140.2807  169.3444 C.3     1  UNL1        0.2525
     33 O         139.2838  140.0020  167.9497 O.3     1  UNL1       -0.4714
@<TRIPOS>BOND
     1    32    33    1
     2    33    22    1
     3    22    23   ar
     4    23    24   ar
     5    24    25   ar
     6    25    26   ar
     7    26    27   ar
     8    27    28   ar
     9    28    29   ar
    10    29    21    1
    11    21    20    1
    12    20     1    1
    13     1     2    1
    14     2     3    1
    15     3     4    1
    16     4     7    1
    17     7     9    1
    18     9    10    1
    19    10    11   ar
    20    11    12   ar
    21    12    13   ar
    22    13    14   ar
    23    14    15   ar
    24    14    16    1
    25    16    17    1
    26    17    18    1
    27    18    19    1
    28     4     5    1
    29     5     6    1
    30    29    30   ar
    31    30    31   ar
    32    31    22   ar
    33    30    25   ar
    34     6     1    1
    35    15    10   ar
    36    19    13    1
    37     7     8    1
@<TRIPOS>MOLECULE
*****
 33 37 0 0 0
SMALL
GASTEIGER

@<TRIPOS>ATOM
      1 N         143.7522  142.2026  164.0056 N.3     1  UNL1       -0.2723
      2 C         142.6284  142.6015  164.9155 C.3     1  UNL1        0.0735
      3 C         141.8352  143.8418  164.6285 C.3     1  UNL1        0.0331
      4 C         142.1657  144.6832  163.4314 C.3     1  UNL1        0.0570
      5 C         143.2895  144.2843  162.5215 C.3     1  UNL1        0.0331
      6 C         144.0827  143.0439  162.8086 C.3     1  UNL1        0.0735
      7 N         141.3725  145.9235  163.1444 N.3     1  UNL1       -0.2947
      8 H         142.0098  146.5842  162.6997 H       1  UNL1        0.1235
      9 C         140.1514  145.8487  162.2765 C.3     1  UNL1        0.0957
     10 C         139.4073  144.5536  162.1388 C.ar    1  UNL1       -0.0032
     11 C         138.3801  144.1663  163.1611 C.ar    1  UNL1        0.0004
     12 C         137.6361  142.8712  163.0233 C.ar    1  UNL1        0.0398
     13 C         137.9192  141.9633  161.8634 C.ar    1  UNL1        0.1724
     14 C         138.9463  142.3505  160.8411 C.ar    1  UNL1        0.1721
     15 C         139.6904  143.6456  160.9788 C.ar    1  UNL1        0.0371
     16 O         139.2294  141.4425  159.6812 O.3     1  UNL1       -0.4684
     17 C         138.4854  140.1474  159.5434 C.3     1  UNL1        0.2526
     18 C         137.4582  139.7602  160.5657 C.3     1  UNL1        0.2526
     19 O         137.1751  140.6681  161.7257 O.3     1  UNL1       -0.4684
     20 C         144.5454  140.9623  164.2926 C.3     1  UNL1        0.0768
     21 C         143.8531  139.7270  164.7878 C.3     1  UNL1        0.0438
     22 C         139.5855  139.1175  166.0784 C.ar    1  UNL1        0.1388
     23 C         138.6292  138.3846  165.1850 C.ar    1  UNL1        0.0384
     24 C         139.0954  137.8548  163.8614 C.ar    1  UNL1        0.0222
     25 C         140.5179  138.0580  163.4311 C.ar    1  UNL1        0.0812
     26 N         140.9842  137.5282  162.1075 N.ar    1  UNL1       -0.2439
     27 C         142.4067  137.7313  161.6773 C.ar    1  UNL1        0.0985
     28 C         143.3631  138.4643  162.5707 C.ar    1  UNL1        0.0165
     29 C         142.8968  138.9941  163.8944 C.ar    1  UNL1       -0.0177
     30 C         141.4742  138.7909  164.3246 C.ar    1  UNL1        0.0168
     31 C         141.0080  139.3207  165.6482 C.ar    1  UNL1        0.0381
     32 C         140.1207  140.0793  168.4318 C.3     1  UNL1        0.2525
     33 O         139.1193  139.6473  167.4020 O.3     1  UNL1       -0.4714
@<TRIPOS>BOND
     1    32    33    1
     2    33    22    1
     3    22    23   ar
     4    23    24   ar
     5    24    25   ar
     6    25    26   ar
     7    26    27   ar
     8    27    28   ar
     9    28    29   ar
    10    29    21    1
    11    21    20    1
    12    20     1    1
    13     1     2    1
    14     2     3    1
    15     3     4    1
    16     4     7    1
    17     7     9    1
    18     9    10    1
    19    10    11   ar
    20    11    12   ar
    21    12    13   ar
    22    13    14   ar
    23    14    15   ar
    24    14    16    1
    25    16    17    1
    26    17    18    1
    27    18    19    1
    28     4     5    1
    29     5     6    1
    30    29    30   ar
    31    30    31   ar
    32    31    22   ar
    33    30    25   ar
    34     6     1    1
    35    15    10   ar
    36    19    13    1
    37     7     8    1
@<TRIPOS>MOLECULE
*****
 33 37 0 0 0
SMALL
GASTEIGER

@<TRIPOS>ATOM
      1 N         141.8200  138.1296  164.2757 N.3     1  UNL1       -0.2723
      2 C         142.0205  138.5072  162.8380 C.3     1  UNL1        0.0735
      3 C         143.2478  139.2644  162.4256 C.3     1  UNL1        0.0331
      4 C         144.2747  139.6441  163.4510 C.3     1  UNL1        0.0570
      5 C         144.0742  139.2665  164.8887 C.3     1  UNL1        0.0331
      6 C         142.8468  138.5092  165.3011 C.3     1  UNL1        0.0735
      7 N         145.5021  140.4014  163.0386 N.3     1  UNL1       -0.2947
      8 H         145.5946  140.2851  162.0295 H       1  UNL1        0.1235
      9 C         145.6047  141.8719  163.3162 C.3     1  UNL1        0.0957
     10 C         144.3940  142.7470  163.1806 C.ar    1  UNL1       -0.0032
     11 C         143.6762  143.2294  164.4063 C.ar    1  UNL1        0.0004
     12 C         142.4655  144.1045  164.2708 C.ar    1  UNL1        0.0398
     13 C         141.9725  144.4972  162.9096 C.ar    1  UNL1        0.1724
     14 C         142.6902  144.0149  161.6840 C.ar    1  UNL1        0.1721
     15 C         143.9010  143.1398  161.8195 C.ar    1  UNL1        0.0371
     16 O         142.1973  144.4077  160.3229 O.3     1  UNL1       -0.4684
     17 C         140.9866  145.2828  160.1873 C.3     1  UNL1        0.2526
     18 C         140.2688  145.7651  161.4130 C.3     1  UNL1        0.2526
     19 O         140.7618  145.3724  162.7742 O.3     1  UNL1       -0.4684
     20 C         140.5926  137.3723  164.6881 C.3     1  UNL1        0.0768
     21 C         139.3687  138.1146  165.1365 C.3     1  UNL1        0.0438
     22 C         140.7489  141.0281  168.2760 C.ar    1  UNL1        0.1388
     23 C         140.6351  142.5037  168.0316 C.ar    1  UNL1        0.0384
     24 C         140.0612  143.0081  166.7408 C.ar    1  UNL1        0.0222
     25 C         139.6011  142.0369  165.6943 C.ar    1  UNL1        0.0812
     26 N         139.0272  142.5413  164.4035 N.ar    1  UNL1       -0.2439
     27 C         138.5671  141.5702  163.3570 C.ar    1  UNL1        0.0985
     28 C         138.6809  140.0945  163.6014 C.ar    1  UNL1        0.0165
     29 C         139.2548  139.5901  164.8922 C.ar    1  UNL1       -0.0177
     30 C         139.7149  140.5614  165.9387 C.ar    1  UNL1        0.0168
     31 C         140.2888  140.0570  167.2295 C.ar    1  UNL1        0.0381
     32 C         140.4279  140.3037  170.7503 C.3     1  UNL1        0.2525
     33 O         141.3228  140.5237  169.5668 O.3     1  UNL1       -0.4714
@<TRIPOS>BOND
     1    32    33    1
     2    33    22    1
     3    22    23   ar
     4    23    24   ar
     5    24    25   ar
     6    25    26   ar
     7    26    27   ar
     8    27    28   ar
     9    28    29   ar
    10    29    21    1
    11    21    20    1
    12    20     1    1
    13     1     2    1
    14     2     3    1
    15     3     4    1
    16     4     7    1
    17     7     9    1
    18     9    10    1
    19    10    11   ar
    20    11    12   ar
    21    12    13   ar
    22    13    14   ar
    23    14    15   ar
    24    14    16    1
    25    16    17    1
    26    17    18    1
    27    18    19    1
    28     4     5    1
    29     5     6    1
    30    29    30   ar
    31    30    31   ar
    32    31    22   ar
    33    30    25   ar
    34     6     1    1
    35    15    10   ar
    36    19    13    1
    37     7     8    1
@<TRIPOS>MOLECULE
*****
 33 37 0 0 0
SMALL
GASTEIGER

@<TRIPOS>ATOM
      1 N         141.8727  138.1129  164.1878 N.3     1  UNL1       -0.2723
      2 C         142.9685  138.4188  165.1654 C.3     1  UNL1        0.0735
      3 C         144.1471  139.2421  164.7375 C.3     1  UNL1        0.0331
      4 C         144.2299  139.7596  163.3320 C.3     1  UNL1        0.0570
      5 C         143.1341  139.4538  162.3544 C.3     1  UNL1        0.0331
      6 C         141.9555  138.6304  162.7823 C.3     1  UNL1        0.0735
      7 N         145.4085  140.5830  162.9042 N.3     1  UNL1       -0.2947
      8 H         145.4617  140.5150  161.8878 H       1  UNL1        0.1235
      9 C         145.4666  142.0428  163.2442 C.3     1  UNL1        0.0957
     10 C         144.2323  142.8880  163.1353 C.ar    1  UNL1       -0.0032
     11 C         143.4923  143.2979  164.3740 C.ar    1  UNL1        0.0004
     12 C         142.2579  144.1431  164.2651 C.ar    1  UNL1        0.0398
     13 C         141.7634  144.5784  162.9175 C.ar    1  UNL1        0.1724
     14 C         142.5034  144.1685  161.6788 C.ar    1  UNL1        0.1721
     15 C         143.7378  143.3233  161.7877 C.ar    1  UNL1        0.0371
     16 O         142.0089  144.6038  160.3312 O.3     1  UNL1       -0.4684
     17 C         140.7745  145.4490  160.2223 C.3     1  UNL1        0.2526
     18 C         140.0345  145.8590  161.4611 C.3     1  UNL1        0.2526
     19 O         140.5290  145.4237  162.8087 O.3     1  UNL1       -0.4684
     20 C         140.6942  137.2896  164.6156 C.3     1  UNL1        0.0768
     21 C         139.4687  137.9609  165.1612 C.3     1  UNL1        0.0438
     22 C         137.8017  141.0488  162.3441 C.ar    1  UNL1        0.1388
     23 C         137.8442  142.5019  162.7137 C.ar    1  UNL1        0.0384
     24 C         138.4424  142.9257  164.0223 C.ar    1  UNL1        0.0222
     25 C         138.9980  141.8965  164.9614 C.ar    1  UNL1        0.0812
     26 N         139.5962  142.3203  166.2700 N.ar    1  UNL1       -0.2439
     27 C         140.1519  141.2911  167.2090 C.ar    1  UNL1        0.0985
     28 C         140.1094  139.8379  166.8394 C.ar    1  UNL1        0.0165
     29 C         139.5112  139.4140  165.5308 C.ar    1  UNL1       -0.0177
     30 C         138.9555  140.4434  164.5918 C.ar    1  UNL1        0.0168
     31 C         138.3573  140.0195  163.2831 C.ar    1  UNL1        0.0381
     32 C         138.0355  139.8739  160.0387 C.3     1  UNL1        0.2525
     33 O         137.2035  140.6249  161.0355 O.3     1  UNL1       -0.4714
@<TRIPOS>BOND
     1    32    33    1
     2    33    22    1
     3    22    23   ar
     4    23    24   ar
     5    24    25   ar
     6    25    26   ar
     7    26    27   ar
     8    27    28   ar
     9    28    29   ar
    10    29    21    1
    11    21    20    1
    12    20     1    1
    13     1     2    1
    14     2     3    1
    15     3     4    1
    16     4     7    1
    17     7     9    1
    18     9    10    1
    19    10    11   ar
    20    11    12   ar
    21    12    13   ar
    22    13    14   ar
    23    14    15   ar
    24    14    16    1
    25    16    17    1
    26    17    18    1
    27    18    19    1
    28     4     5    1
    29     5     6    1
    30    29    30   ar
    31    30    31   ar
    32    31    22   ar
    33    30    25   ar
    34     6     1    1
    35    15    10   ar
    36    19    13    1
    37     7     8    1
