@<TRIPOS>MOLECULE
*****
 30 33 0 0 0
SMALL
GASTEIGER

@<TRIPOS>ATOM
      1 C         141.4313  142.0818  166.2797 C.2     1  UNL1        0.0020
      2 C         140.9429  142.5113  167.6314 C.2     1  UNL1        0.0130
      3 C         141.2297  141.6650  168.8362 C.3     1  UNL1        0.1542
      4 C         140.4545  142.9407  168.9830 C.3     1  UNL1        0.0614
      5 C         139.9661  143.3701  170.3347 C.3     1  UNL1        0.0725
      6 N         140.2529  142.5239  171.5395 N.3     1  UNL1       -0.2972
      7 C         141.0282  141.2482  171.3927 C.3     1  UNL1        0.0725
      8 C         141.5166  140.8188  170.0410 C.3     1  UNL1        0.0614
      9 O         142.0050  140.3893  168.6893 O.3     1  UNL1       -0.4785
     10 C         142.4934  139.9598  167.3376 C.ar    1  UNL1        0.1386
     11 C         143.2687  138.6841  167.1908 C.ar    1  UNL1        0.0369
     12 C         143.7571  138.2547  165.8391 C.ar    1  UNL1        0.0031
     13 C         143.4702  139.1009  164.6343 C.ar    1  UNL1        0.0002
     14 C         142.6950  140.3766  164.7811 C.ar    1  UNL1        0.0030
     15 C         142.2066  140.8061  166.1328 C.ar    1  UNL1        0.0338
     16 H         139.3511  142.2753  171.9461 H       1  UNL1        0.1233
     17 C         140.5709  144.6205  162.6652 C.ar    1  UNL1        0.0496
     18 C         141.9176  144.6835  163.3226 C.ar    1  UNL1        0.0042
     19 C         142.2045  143.8372  164.5274 C.ar    1  UNL1        0.0001
     20 C         141.1445  142.9280  165.0748 C.ar    1  UNL1       -0.0004
     21 C         139.7976  142.8650  164.4175 C.ar    1  UNL1       -0.0041
     22 C         139.5108  143.7113  163.2127 C.ar    1  UNL1       -0.0175
     23 C         138.1640  143.6483  162.5553 C.3     1  UNL1        0.0312
     24 N         140.6262  144.9614  160.0902 N.am    1  UNL1       -0.2761
     25 C         140.2840  145.4668  161.4604 C.2     1  UNL1        0.2487
     26 O         139.6550  146.8185  161.6258 O.2     1  UNL1       -0.2699
     27 C         141.2829  145.7966  157.7193 C.3     1  UNL1        0.0233
     28 C         140.3394  145.8077  158.8854 C.3     1  UNL1        0.0938
     29 C         141.2553  143.6097  159.9248 C.3     1  UNL1        0.0938
     30 C         140.3909  142.3975  159.7424 C.3     1  UNL1        0.0233
@<TRIPOS>BOND
     1    27    28    1
     2    28    24    1
     3    24    29    1
     4    29    30    1
     5    24    25   am
     6    25    26    2
     7    25    17    1
     8    17    18   ar
     9    18    19   ar
    10    19    20   ar
    11    20     1    1
    12     1     2    2
    13     2     3    1
    14     3     4    1
    15     4     5    1
    16     5     6    1
    17     6     7    1
    18     7     8    1
    19     3     9    1
    20     9    10    1
    21    10    11   ar
    22    11    12   ar
    23    12    13   ar
    24    13    14   ar
    25    14    15   ar
    26    20    21   ar
    27    21    22   ar
    28    22    23    1
    29    22    17   ar
    30    15     1    1
    31     8     3    1
    32    15    10   ar
    33     6    16    1
@<TRIPOS>MOLECULE
*****
 30 33 0 0 0
SMALL
GASTEIGER

@<TRIPOS>ATOM
      1 C         139.7876  141.9612  165.8523 C.2     1  UNL1        0.0020
      2 C         140.1664  142.4596  167.2155 C.2     1  UNL1        0.0130
      3 C         140.1415  141.5258  168.3891 C.3     1  UNL1        0.1542
      4 C         140.5451  142.9580  168.5786 C.3     1  UNL1        0.0614
      5 C         140.9239  143.4563  169.9417 C.3     1  UNL1        0.0725
      6 N         140.8990  142.5225  171.1153 N.3     1  UNL1       -0.2972
      7 C         140.4954  141.0903  170.9258 C.3     1  UNL1        0.0725
      8 C         140.1167  140.5920  169.5627 C.3     1  UNL1        0.0614
      9 O         139.7379  140.0936  168.1995 O.3     1  UNL1       -0.4785
     10 C         139.3591  139.5952  166.8364 C.ar    1  UNL1        0.1386
     11 C         138.9555  138.1630  166.6468 C.ar    1  UNL1        0.0369
     12 C         138.5768  137.6647  165.2837 C.ar    1  UNL1        0.0031
     13 C         138.6016  138.5985  164.1101 C.ar    1  UNL1        0.0002
     14 C         139.0052  140.0306  164.2996 C.ar    1  UNL1        0.0030
     15 C         139.3840  140.5291  165.6628 C.ar    1  UNL1        0.0338
     16 H         140.2537  142.9226  171.7964 H       1  UNL1        0.1233
     17 C         139.8622  144.7627  162.3315 C.ar    1  UNL1        0.0496
     18 C         138.5530  144.2521  162.8560 C.ar    1  UNL1        0.0042
     19 C         138.5281  143.3183  164.0296 C.ar    1  UNL1        0.0001
     20 C         139.8125  142.8950  164.6787 C.ar    1  UNL1       -0.0004
     21 C         141.1218  143.4056  164.1541 C.ar    1  UNL1       -0.0041
     22 C         141.1466  144.3395  162.9805 C.ar    1  UNL1       -0.0175
     23 C         142.4558  144.8500  162.4559 C.3     1  UNL1        0.0312
     24 N         140.1503  145.1635  159.7807 N.am    1  UNL1       -0.2761
     25 C         139.8871  145.6965  161.1578 C.2     1  UNL1        0.2487
     26 O         139.6486  147.1634  161.3614 O.2     1  UNL1       -0.2699
     27 C         140.8493  145.6826  157.3328 C.3     1  UNL1        0.0233
     28 C         140.1752  146.0973  158.6071 C.3     1  UNL1        0.0938
     29 C         140.3887  143.6965  159.5771 C.3     1  UNL1        0.0938
     30 C         139.2400  142.7877  159.2540 C.3     1  UNL1        0.0233
@<TRIPOS>BOND
     1    27    28    1
     2    28    24    1
     3    24    29    1
     4    29    30    1
     5    24    25   am
     6    25    26    2
     7    25    17    1
     8    17    18   ar
     9    18    19   ar
    10    19    20   ar
    11    20     1    1
    12     1     2    2
    13     2     3    1
    14     3     4    1
    15     4     5    1
    16     5     6    1
    17     6     7    1
    18     7     8    1
    19     3     9    1
    20     9    10    1
    21    10    11   ar
    22    11    12   ar
    23    12    13   ar
    24    13    14   ar
    25    14    15   ar
    26    20    21   ar
    27    21    22   ar
    28    22    23    1
    29    22    17   ar
    30    15     1    1
    31     8     3    1
    32    15    10   ar
    33     6    16    1
@<TRIPOS>MOLECULE
*****
 30 33 0 0 0
SMALL
GASTEIGER

@<TRIPOS>ATOM
      1 C         141.3239  141.2628  166.6009 C.2     1  UNL1        0.0020
      2 C         141.8441  141.8038  167.8997 C.2     1  UNL1        0.0130
      3 C         141.1742  141.4316  169.1891 C.3     1  UNL1        0.1542
      4 C         142.3642  142.3447  169.1984 C.3     1  UNL1        0.0614
      5 C         142.8843  142.8856  170.4971 C.3     1  UNL1        0.0725
      6 N         142.2145  142.5135  171.7866 N.3     1  UNL1       -0.2972
      7 C         141.0245  141.6004  171.7774 C.3     1  UNL1        0.0725
      8 C         140.5043  141.0594  170.4786 C.3     1  UNL1        0.0614
      9 O         139.9841  140.5184  169.1799 O.3     1  UNL1       -0.4785
     10 C         139.4640  139.9775  167.8811 C.ar    1  UNL1        0.1386
     11 C         138.2740  139.0644  167.8718 C.ar    1  UNL1        0.0369
     12 C         137.7538  138.5234  166.5731 C.ar    1  UNL1        0.0031
     13 C         138.4237  138.8956  165.2836 C.ar    1  UNL1        0.0002
     14 C         139.6137  139.8087  165.2928 C.ar    1  UNL1        0.0030
     15 C         140.1339  140.3497  166.5916 C.ar    1  UNL1        0.0338
     16 H         141.9140  143.3844  172.2244 H       1  UNL1        0.1233
     17 C         143.3334  142.3792  162.7324 C.ar    1  UNL1        0.0496
     18 C         141.9040  142.7647  162.9735 C.ar    1  UNL1        0.0042
     19 C         141.2342  142.3925  164.2630 C.ar    1  UNL1        0.0001
     20 C         141.9937  141.6349  165.3114 C.ar    1  UNL1       -0.0004
     21 C         143.4232  141.2494  165.0702 C.ar    1  UNL1       -0.0041
     22 C         144.0930  141.6216  163.7807 C.ar    1  UNL1       -0.0175
     23 C         145.5224  141.2361  163.5396 C.3     1  UNL1        0.0312
     24 N         143.9297  141.8256  160.2650 N.am    1  UNL1       -0.2761
     25 C         144.0033  142.7514  161.4429 C.2     1  UNL1        0.2487
     26 O         144.7467  144.0494  161.3313 O.2     1  UNL1       -0.2699
     27 C         143.8196  142.8915  157.8982 C.3     1  UNL1        0.0233
     28 C         144.5995  142.1977  158.9755 C.3     1  UNL1        0.0938
     29 C         143.1862  140.5275  160.3766 C.3     1  UNL1        0.0938
     30 C         143.9193  139.2728  160.7484 C.3     1  UNL1        0.0233
@<TRIPOS>BOND
     1    27    28    1
     2    28    24    1
     3    24    29    1
     4    29    30    1
     5    24    25   am
     6    25    26    2
     7    25    17    1
     8    17    18   ar
     9    18    19   ar
    10    19    20   ar
    11    20     1    1
    12     1     2    2
    13     2     3    1
    14     3     4    1
    15     4     5    1
    16     5     6    1
    17     6     7    1
    18     7     8    1
    19     3     9    1
    20     9    10    1
    21    10    11   ar
    22    11    12   ar
    23    12    13   ar
    24    13    14   ar
    25    14    15   ar
    26    20    21   ar
    27    21    22   ar
    28    22    23    1
    29    22    17   ar
    30    15     1    1
    31     8     3    1
    32    15    10   ar
    33     6    16    1
@<TRIPOS>MOLECULE
*****
 30 33 0 0 0
SMALL
GASTEIGER

@<TRIPOS>ATOM
      1 C         141.9702  142.1255  162.5137 C.2     1  UNL1        0.0020
      2 C         142.5472  141.1740  161.5078 C.2     1  UNL1        0.0130
      3 C         142.4757  141.4953  160.0444 C.3     1  UNL1        0.1542
      4 C         143.1242  140.2225  160.5019 C.3     1  UNL1        0.0614
      5 C         143.7012  139.2711  159.4961 C.3     1  UNL1        0.0725
      6 N         143.6297  139.5924  158.0326 N.3     1  UNL1       -0.2972
      7 C         142.9811  140.8652  157.5751 C.3     1  UNL1        0.0725
      8 C         142.4041  141.8166  158.5809 C.3     1  UNL1        0.0614
      9 O         141.8271  142.7682  159.5868 O.3     1  UNL1       -0.4785
     10 C         141.2501  143.7196  160.5927 C.ar    1  UNL1        0.1386
     11 C         140.6016  144.9924  160.1351 C.ar    1  UNL1        0.0369
     12 C         140.0246  145.9439  161.1410 C.ar    1  UNL1        0.0031
     13 C         140.0961  145.6226  162.6044 C.ar    1  UNL1        0.0002
     14 C         140.7447  144.3498  163.0620 C.ar    1  UNL1        0.0030
     15 C         141.3217  143.3983  162.0561 C.ar    1  UNL1        0.0338
     16 H         143.1229  138.8272  157.5876 H       1  UNL1        0.1233
     17 C         142.1848  141.1615  166.9040 C.ar    1  UNL1        0.0496
     18 C         143.2628  141.9845  166.2632 C.ar    1  UNL1        0.0042
     19 C         143.1913  142.3058  164.7998 C.ar    1  UNL1        0.0001
     20 C         142.0418  141.8042  163.9771 C.ar    1  UNL1       -0.0004
     21 C         140.9637  140.9811  164.6178 C.ar    1  UNL1       -0.0041
     22 C         141.0352  140.6598  166.0813 C.ar    1  UNL1       -0.0175
     23 C         139.9572  139.8368  166.7220 C.3     1  UNL1        0.0312
     24 N         141.5784  141.7317  169.3650 N.am    1  UNL1       -0.2761
     25 C         142.2564  140.8402  168.3674 C.2     1  UNL1        0.2487
     26 O         143.0060  139.6272  168.8331 O.2     1  UNL1       -0.2699
     27 C         140.6431  140.4836  171.4429 C.3     1  UNL1        0.0233
     28 C         141.6499  141.4104  170.8285 C.3     1  UNL1        0.0938
     29 C         140.8287  142.9447  168.8993 C.3     1  UNL1        0.0938
     30 C         140.3688  143.9696  169.8932 C.3     1  UNL1        0.0233
@<TRIPOS>BOND
     1    27    28    1
     2    28    24    1
     3    24    29    1
     4    29    30    1
     5    24    25   am
     6    25    26    2
     7    25    17    1
     8    17    18   ar
     9    18    19   ar
    10    19    20   ar
    11    20     1    1
    12     1     2    2
    13     2     3    1
    14     3     4    1
    15     4     5    1
    16     5     6    1
    17     6     7    1
    18     7     8    1
    19     3     9    1
    20     9    10    1
    21    10    11   ar
    22    11    12   ar
    23    12    13   ar
    24    13    14   ar
    25    14    15   ar
    26    20    21   ar
    27    21    22   ar
    28    22    23    1
    29    22    17   ar
    30    15     1    1
    31     8     3    1
    32    15    10   ar
    33     6    16    1
@<TRIPOS>MOLECULE
*****
 30 33 0 0 0
SMALL
GASTEIGER

@<TRIPOS>ATOM
      1 C         140.2805  140.3639  162.4391 C.2     1  UNL1        0.0020
      2 C         140.2956  141.8632  162.4861 C.2     1  UNL1        0.0130
      3 C         139.6830  142.5833  163.6506 C.3     1  UNL1        0.1542
      4 C         140.3107  143.3623  162.5331 C.3     1  UNL1        0.0614
      5 C         140.3258  144.8615  162.5801 C.3     1  UNL1        0.0725
      6 N         139.7132  145.5816  163.7446 N.3     1  UNL1       -0.2972
      7 C         139.0854  144.8025  164.8622 C.3     1  UNL1        0.0725
      8 C         139.0703  143.3033  164.8152 C.3     1  UNL1        0.0614
      9 O         139.0552  141.8041  164.7682 O.3     1  UNL1       -0.4785
     10 C         139.0401  140.3050  164.7212 C.ar    1  UNL1        0.1386
     11 C         138.4124  139.5258  165.8388 C.ar    1  UNL1        0.0369
     12 C         138.3973  138.0266  165.7918 C.ar    1  UNL1        0.0031
     13 C         139.0099  137.3066  164.6273 C.ar    1  UNL1        0.0002
     14 C         139.6376  138.0856  163.5097 C.ar    1  UNL1        0.0030
     15 C         139.6527  139.5849  163.5567 C.ar    1  UNL1        0.0338
     16 H         138.9874  146.1900  163.3659 H       1  UNL1        0.1233
     17 C         142.1184  138.2037  158.9455 C.ar    1  UNL1        0.0496
     18 C         142.9649  138.5768  160.1262 C.ar    1  UNL1        0.0042
     19 C         142.3523  139.2969  161.2907 C.ar    1  UNL1        0.0001
     20 C         140.8931  139.6439  161.2746 C.ar    1  UNL1       -0.0004
     21 C         140.0464  139.2707  160.0939 C.ar    1  UNL1       -0.0041
     22 C         140.6591  138.5506  158.9293 C.ar    1  UNL1       -0.0175
     23 C         139.8125  138.1775  157.7487 C.3     1  UNL1        0.0312
     24 N         143.2292  138.2590  156.5976 N.am    1  UNL1       -0.2761
     25 C         142.7310  137.4836  157.7809 C.2     1  UNL1        0.2487
     26 O         142.8453  135.9880  157.7998 O.2     1  UNL1       -0.2699
     27 C         142.9624  136.8975  154.4009 C.3     1  UNL1        0.0233
     28 C         143.8419  137.5389  155.4330 C.3     1  UNL1        0.0938
     29 C         143.1149  139.7546  156.5787 C.3     1  UNL1        0.0938
     30 C         144.3065  140.6021  156.9129 C.3     1  UNL1        0.0233
@<TRIPOS>BOND
     1    27    28    1
     2    28    24    1
     3    24    29    1
     4    29    30    1
     5    24    25   am
     6    25    26    2
     7    25    17    1
     8    17    18   ar
     9    18    19   ar
    10    19    20   ar
    11    20     1    1
    12     1     2    2
    13     2     3    1
    14     3     4    1
    15     4     5    1
    16     5     6    1
    17     6     7    1
    18     7     8    1
    19     3     9    1
    20     9    10    1
    21    10    11   ar
    22    11    12   ar
    23    12    13   ar
    24    13    14   ar
    25    14    15   ar
    26    20    21   ar
    27    21    22   ar
    28    22    23    1
    29    22    17   ar
    30    15     1    1
    31     8     3    1
    32    15    10   ar
    33     6    16    1
@<TRIPOS>MOLECULE
*****
 30 33 0 0 0
SMALL
GASTEIGER

@<TRIPOS>ATOM
      1 C         141.0639  140.2867  161.6046 C.2     1  UNL1        0.0020
      2 C         142.4101  140.9470  161.6498 C.2     1  UNL1        0.0130
      3 C         143.3542  140.6488  162.7766 C.3     1  UNL1        0.1542
      4 C         143.7562  141.6071  161.6950 C.3     1  UNL1        0.0614
      5 C         145.1023  142.2673  161.7402 C.3     1  UNL1        0.0725
      6 N         146.0465  141.9691  162.8670 N.3     1  UNL1       -0.2972
      7 C         145.6445  141.0107  163.9486 C.3     1  UNL1        0.0725
      8 C         144.2984  140.3506  163.9034 C.3     1  UNL1        0.0614
      9 O         142.9522  139.6904  163.8582 O.3     1  UNL1       -0.4785
     10 C         141.6060  139.0302  163.8130 C.ar    1  UNL1        0.1386
     11 C         141.2040  138.0718  164.8947 C.ar    1  UNL1        0.0369
     12 C         139.8579  137.4116  164.8495 C.ar    1  UNL1        0.0031
     13 C         138.9137  137.7098  163.7227 C.ar    1  UNL1        0.0002
     14 C         139.3157  138.6682  162.6411 C.ar    1  UNL1        0.0030
     15 C         140.6619  139.3284  162.6862 C.ar    1  UNL1        0.0338
     16 H         146.2513  142.8583  163.3227 H       1  UNL1        0.1233
     17 C         138.2315  141.1813  158.2242 C.ar    1  UNL1        0.0496
     18 C         138.1401  141.9574  159.5046 C.ar    1  UNL1        0.0042
     19 C         139.0842  141.6592  160.6314 C.ar    1  UNL1        0.0001
     20 C         140.1197  140.5849  160.4778 C.ar    1  UNL1       -0.0004
     21 C         140.2112  139.8088  159.1974 C.ar    1  UNL1       -0.0041
     22 C         139.2671  140.1070  158.0706 C.ar    1  UNL1       -0.0175
     23 C         139.3585  139.3310  156.7902 C.3     1  UNL1        0.0312
     24 N         137.5389  142.6541  156.1990 N.am    1  UNL1       -0.2761
     25 C         137.2873  141.4795  157.0974 C.2     1  UNL1        0.2487
     26 O         136.0915  140.6031  156.8690 O.2     1  UNL1       -0.2699
     27 C         136.9695  143.9606  154.0267 C.3     1  UNL1        0.0233
     28 C         136.5948  142.9523  155.0722 C.3     1  UNL1        0.0938
     29 C         138.7347  143.5305  156.4274 C.3     1  UNL1        0.0938
     30 C         140.0693  143.1396  155.8654 C.3     1  UNL1        0.0233
@<TRIPOS>BOND
     1    27    28    1
     2    28    24    1
     3    24    29    1
     4    29    30    1
     5    24    25   am
     6    25    26    2
     7    25    17    1
     8    17    18   ar
     9    18    19   ar
    10    19    20   ar
    11    20     1    1
    12     1     2    2
    13     2     3    1
    14     3     4    1
    15     4     5    1
    16     5     6    1
    17     6     7    1
    18     7     8    1
    19     3     9    1
    20     9    10    1
    21    10    11   ar
    22    11    12   ar
    23    12    13   ar
    24    13    14   ar
    25    14    15   ar
    26    20    21   ar
    27    21    22   ar
    28    22    23    1
    29    22    17   ar
    30    15     1    1
    31     8     3    1
    32    15    10   ar
    33     6    16    1
@<TRIPOS>MOLECULE
*****
 30 33 0 0 0
SMALL
GASTEIGER

@<TRIPOS>ATOM
      1 C         141.7412  141.2506  162.0810 C.2     1  UNL1        0.0020
      2 C         141.2403  142.5935  161.6384 C.2     1  UNL1        0.0130
      3 C         141.0196  142.8683  160.1804 C.3     1  UNL1        0.1542
      4 C         140.7394  143.9363  161.1957 C.3     1  UNL1        0.0614
      5 C         140.2386  145.2791  160.7531 C.3     1  UNL1        0.0725
      6 N         140.0178  145.5539  159.2951 N.3     1  UNL1       -0.2972
      7 C         140.2979  144.4860  158.2798 C.3     1  UNL1        0.0725
      8 C         140.7988  143.1432  158.7224 C.3     1  UNL1        0.0614
      9 O         141.2997  141.8003  159.1650 O.3     1  UNL1       -0.4785
     10 C         141.8006  140.4575  159.6076 C.ar    1  UNL1        0.1386
     11 C         142.0808  139.3895  158.5922 C.ar    1  UNL1        0.0369
     12 C         142.5816  138.0467  159.0348 C.ar    1  UNL1        0.0031
     13 C         142.8024  137.7718  160.4928 C.ar    1  UNL1        0.0002
     14 C         142.5223  138.8397  161.5082 C.ar    1  UNL1        0.0030
     15 C         142.0214  140.1826  161.0656 C.ar    1  UNL1        0.0338
     16 H         140.6060  146.3515  159.0535 H       1  UNL1        0.1233
     17 C         142.4035  140.4259  166.4549 C.ar    1  UNL1        0.0496
     18 C         143.5377  140.9146  165.6037 C.ar    1  UNL1        0.0042
     19 C         143.3170  141.1895  164.1457 C.ar    1  UNL1        0.0001
     20 C         141.9620  140.9757  163.5389 C.ar    1  UNL1       -0.0004
     21 C         140.8276  140.4870  164.3902 C.ar    1  UNL1       -0.0041
     22 C         141.0484  140.2121  165.8481 C.ar    1  UNL1       -0.0175
     23 C         139.9141  139.7234  166.6994 C.3     1  UNL1        0.0312
     24 N         142.3853  141.2324  168.9245 N.am    1  UNL1       -0.2761
     25 C         142.6242  140.1511  167.9129 C.2     1  UNL1        0.2487
     26 O         143.0839  138.7947  168.3592 O.2     1  UNL1       -0.2699
     27 C         141.4350  140.6904  171.2811 C.3     1  UNL1        0.0233
     28 C         142.6061  140.9576  170.3825 C.3     1  UNL1        0.0938
     29 C         141.9256  142.5888  168.4782 C.3     1  UNL1        0.0938
     30 C         140.4945  142.9957  168.6682 C.3     1  UNL1        0.0233
@<TRIPOS>BOND
     1    27    28    1
     2    28    24    1
     3    24    29    1
     4    29    30    1
     5    24    25   am
     6    25    26    2
     7    25    17    1
     8    17    18   ar
     9    18    19   ar
    10    19    20   ar
    11    20     1    1
    12     1     2    2
    13     2     3    1
    14     3     4    1
    15     4     5    1
    16     5     6    1
    17     6     7    1
    18     7     8    1
    19     3     9    1
    20     9    10    1
    21    10    11   ar
    22    11    12   ar
    23    12    13   ar
    24    13    14   ar
    25    14    15   ar
    26    20    21   ar
    27    21    22   ar
    28    22    23    1
    29    22    17   ar
    30    15     1    1
    31     8     3    1
    32    15    10   ar
    33     6    16    1
@<TRIPOS>MOLECULE
*****
 30 33 0 0 0
SMALL
GASTEIGER

@<TRIPOS>ATOM
      1 C         141.0133  141.0396  162.2293 C.2     1  UNL1        0.0020
      2 C         139.8813  140.7357  161.2932 C.2     1  UNL1        0.0130
      3 C         140.0486  140.9529  159.8185 C.3     1  UNL1        0.1542
      4 C         138.7493  140.4319  160.3571 C.3     1  UNL1        0.0614
      5 C         137.6173  140.1280  159.4211 C.3     1  UNL1        0.0725
      6 N         137.7847  140.3452  157.9464 N.3     1  UNL1       -0.2972
      7 C         139.0840  140.8662  157.4077 C.3     1  UNL1        0.0725
      8 C         140.2160  141.1700  158.3437 C.3     1  UNL1        0.0614
      9 O         141.3481  141.4739  159.2798 O.3     1  UNL1       -0.4785
     10 C         142.4800  141.7778  160.2159 C.ar    1  UNL1        0.1386
     11 C         143.7795  142.2988  159.6772 C.ar    1  UNL1        0.0369
     12 C         144.9114  142.6027  160.6132 C.ar    1  UNL1        0.0031
     13 C         144.7441  142.3855  162.0880 C.ar    1  UNL1        0.0002
     14 C         143.4447  141.8645  162.6267 C.ar    1  UNL1        0.0030
     15 C         142.3127  141.5606  161.6906 C.ar    1  UNL1        0.0338
     16 H         137.0618  141.0064  157.6622 H       1  UNL1        0.1233
     17 C         140.5113  140.3882  166.6535 C.ar    1  UNL1        0.0496
     18 C         140.8013  139.2247  165.7522 C.ar    1  UNL1        0.0042
     19 C         140.9687  139.4419  164.2775 C.ar    1  UNL1        0.0001
     20 C         140.8460  140.8225  163.7040 C.ar    1  UNL1       -0.0004
     21 C         140.5559  141.9860  164.6053 C.ar    1  UNL1       -0.0041
     22 C         140.3885  141.7688  166.0800 C.ar    1  UNL1       -0.0175
     23 C         140.0985  142.9322  166.9812 C.3     1  UNL1        0.0312
     24 N         141.4998  140.4009  169.0561 N.am    1  UNL1       -0.2761
     25 C         140.3439  140.1710  168.1282 C.2     1  UNL1        0.2487
     26 O         139.0206  139.7239  168.6750 O.2     1  UNL1       -0.2699
     27 C         140.8654  141.3088  171.4063 C.3     1  UNL1        0.0233
     28 C         141.3324  140.1838  170.5308 C.3     1  UNL1        0.0938
     29 C         142.8231  140.8481  168.5092 C.3     1  UNL1        0.0938
     30 C         143.2885  142.2568  168.7301 C.3     1  UNL1        0.0233
@<TRIPOS>BOND
     1    27    28    1
     2    28    24    1
     3    24    29    1
     4    29    30    1
     5    24    25   am
     6    25    26    2
     7    25    17    1
     8    17    18   ar
     9    18    19   ar
    10    19    20   ar
    11    20     1    1
    12     1     2    2
    13     2     3    1
    14     3     4    1
    15     4     5    1
    16     5     6    1
    17     6     7    1
    18     7     8    1
    19     3     9    1
    20     9    10    1
    21    10    11   ar
    22    11    12   ar
    23    12    13   ar
    24    13    14   ar
    25    14    15   ar
    26    20    21   ar
    27    21    22   ar
    28    22    23    1
    29    22    17   ar
    30    15     1    1
    31     8     3    1
    32    15    10   ar
    33     6    16    1
@<TRIPOS>MOLECULE
*****
 30 33 0 0 0
SMALL
GASTEIGER

@<TRIPOS>ATOM
      1 C         140.4890  142.3488  161.5048 C.2     1  UNL1        0.0020
      2 C         141.9587  142.0572  161.5761 C.2     1  UNL1        0.0130
      3 C         142.7578  142.5164  162.7595 C.3     1  UNL1        0.1542
      4 C         143.4283  141.7656  161.6475 C.3     1  UNL1        0.0614
      5 C         144.8980  141.4740  161.7188 C.3     1  UNL1        0.0725
      6 N         145.6971  141.9332  162.9023 N.3     1  UNL1       -0.2972
      7 C         145.0266  142.6840  164.0143 C.3     1  UNL1        0.0725
      8 C         143.5570  142.9755  163.9430 C.3     1  UNL1        0.0614
      9 O         142.0873  143.2672  163.8717 O.3     1  UNL1       -0.4785
     10 C         140.6177  143.5587  163.8003 C.ar    1  UNL1        0.1386
     11 C         139.9471  144.3095  164.9124 C.ar    1  UNL1        0.0369
     12 C         138.4775  144.6011  164.8411 C.ar    1  UNL1        0.0031
     13 C         137.6783  144.1419  163.6576 C.ar    1  UNL1        0.0002
     14 C         138.3488  143.3911  162.5455 C.ar    1  UNL1        0.0030
     15 C         139.8185  143.0995  162.6169 C.ar    1  UNL1        0.0338
     16 H         146.4356  142.5377  162.5422 H       1  UNL1        0.1233
     17 C         138.0916  140.9712  157.9545 C.ar    1  UNL1        0.0496
     18 C         138.2852  140.0581  159.1286 C.ar    1  UNL1        0.0042
     19 C         139.0843  140.5173  160.3121 C.ar    1  UNL1        0.0001
     20 C         139.6899  141.8896  160.3213 C.ar    1  UNL1       -0.0004
     21 C         139.4963  142.8028  159.1471 C.ar    1  UNL1       -0.0041
     22 C         138.6971  142.3436  157.9637 C.ar    1  UNL1       -0.0175
     23 C         138.5035  143.2567  156.7895 C.3     1  UNL1        0.0312
     24 N         137.9840  139.8861  155.5963 N.am    1  UNL1       -0.2761
     25 C         137.2924  140.5121  156.7710 C.2     1  UNL1        0.2487
     26 O         135.8017  140.6788  156.7623 O.2     1  UNL1       -0.2699
     27 C         136.9511  137.9623  154.1883 C.3     1  UNL1        0.0233
     28 C         137.1848  139.4269  154.4129 C.3     1  UNL1        0.0938
     29 C         139.4747  139.7193  155.6050 C.3     1  UNL1        0.0938
     30 C         140.3374  140.6425  154.7966 C.3     1  UNL1        0.0233
@<TRIPOS>BOND
     1    27    28    1
     2    28    24    1
     3    24    29    1
     4    29    30    1
     5    24    25   am
     6    25    26    2
     7    25    17    1
     8    17    18   ar
     9    18    19   ar
    10    19    20   ar
    11    20     1    1
    12     1     2    2
    13     2     3    1
    14     3     4    1
    15     4     5    1
    16     5     6    1
    17     6     7    1
    18     7     8    1
    19     3     9    1
    20     9    10    1
    21    10    11   ar
    22    11    12   ar
    23    12    13   ar
    24    13    14   ar
    25    14    15   ar
    26    20    21   ar
    27    21    22   ar
    28    22    23    1
    29    22    17   ar
    30    15     1    1
    31     8     3    1
    32    15    10   ar
    33     6    16    1
