@<TRIPOS>MOLECULE
*****
 25 28 0 0 0
SMALL
GASTEIGER

@<TRIPOS>ATOM
      1 N         141.6736  141.1011  165.8245 N.pl3   1  UNL1       -0.2860
      2 C         142.9618  141.2205  165.0654 C.ar    1  UNL1        0.0576
      3 C         143.8237  142.4361  165.2372 C.ar    1  UNL1        0.0153
      4 C         145.1119  142.5554  164.4781 C.ar    1  UNL1        0.0013
      5 C         145.5382  141.4592  163.5472 C.ar    1  UNL1        0.0006
      6 C         144.6764  140.2437  163.3754 C.ar    1  UNL1        0.0077
      7 C         143.3882  140.1243  164.1345 C.ar    1  UNL1        0.0431
      8 S         142.5262  138.9087  163.9627 S.3     1  UNL1       -0.0844
      9 C         141.2380  138.7894  164.7218 C.ar    1  UNL1        0.0431
     10 C         140.3761  137.5738  164.5500 C.ar    1  UNL1        0.0086
     11 C         139.0879  137.4544  165.3090 C.ar    1  UNL1        0.0120
     12 C         138.6616  138.5506  166.2399 C.ar    1  UNL1        0.0589
     13 CL        137.3734  138.4312  166.9990 Cl      1  UNL1       -0.0822
     14 C         139.5234  139.7662  166.4118 C.ar    1  UNL1        0.0267
     15 C         140.8117  139.8856  165.6527 C.ar    1  UNL1        0.0585
     16 C         141.2472  142.1973  166.7554 C.3     1  UNL1        0.0970
     17 C         140.2165  143.1950  166.3170 C.3     1  UNL1        0.0391
     18 C         140.1281  143.5976  164.8748 C.3     1  UNL1        0.0739
     19 C         137.5294  139.9383  160.8926 C.3     1  UNL1        0.0897
     20 N         138.1791  140.8532  161.8882 N.3     1  UNL1       -0.2691
     21 C         137.4024  141.3443  163.0737 C.3     1  UNL1        0.0897
     22 C         138.0521  142.2591  164.0693 C.3     1  UNL1        0.0897
     23 N         139.4783  142.6827  163.8792 N.3     1  UNL1       -0.2703
     24 C         140.2550  142.1916  162.6937 C.3     1  UNL1        0.0897
     25 C         139.6054  141.2768  161.6981 C.3     1  UNL1        0.0897
@<TRIPOS>BOND
     1    19    20    1
     2    20    21    1
     3    21    22    1
     4    22    23    1
     5    23    18    1
     6    18    17    1
     7    17    16    1
     8    16     1    1
     9     1     2    1
    10     2     3   ar
    11     3     4   ar
    12     4     5   ar
    13     5     6   ar
    14     6     7   ar
    15     7     8    1
    16     8     9    1
    17     9    10   ar
    18    10    11   ar
    19    11    12   ar
    20    12    13    1
    21    12    14   ar
    22    14    15   ar
    23    23    24    1
    24    24    25    1
    25    25    20    1
    26    15     1    1
    27     7     2   ar
    28    15     9   ar
@<TRIPOS>MOLECULE
*****
 25 28 0 0 0
SMALL
GASTEIGER

@<TRIPOS>ATOM
      1 N         140.9315  142.2822  165.0459 N.pl3   1  UNL1       -0.2860
      2 C         142.0657  142.7310  164.1728 C.ar    1  UNL1        0.0576
      3 C         142.5348  144.1548  164.2256 C.ar    1  UNL1        0.0153
      4 C         143.6689  144.6036  163.3525 C.ar    1  UNL1        0.0013
      5 C         144.3339  143.6286  162.4266 C.ar    1  UNL1        0.0006
      6 C         143.8648  142.2049  162.3738 C.ar    1  UNL1        0.0077
      7 C         142.7307  141.7561  163.2469 C.ar    1  UNL1        0.0431
      8 S         142.2615  140.3323  163.1941 S.3     1  UNL1       -0.0844
      9 C         141.1274  139.8835  164.0672 C.ar    1  UNL1        0.0431
     10 C         140.6582  138.4597  164.0144 C.ar    1  UNL1        0.0086
     11 C         139.5241  138.0109  164.8875 C.ar    1  UNL1        0.0120
     12 C         138.8591  138.9858  165.8134 C.ar    1  UNL1        0.0589
     13 CL        137.7250  138.5370  166.6864 Cl      1  UNL1       -0.0822
     14 C         139.3282  140.4095  165.8662 C.ar    1  UNL1        0.0267
     15 C         140.4624  140.8584  164.9931 C.ar    1  UNL1        0.0585
     16 C         140.2665  143.2571  165.9718 C.3     1  UNL1        0.0970
     17 C         139.1642  144.1396  165.4659 C.3     1  UNL1        0.0391
     18 C         138.4014  143.7548  164.2329 C.3     1  UNL1        0.0739
     19 C         140.5101  145.2395  158.8154 C.3     1  UNL1        0.0897
     20 N         139.9829  144.8683  160.1699 N.3     1  UNL1       -0.2691
     21 C         139.4637  143.4832  160.4188 C.3     1  UNL1        0.0897
     22 C         138.9366  143.1120  161.7731 C.3     1  UNL1        0.0897
     23 N         138.9286  144.1259  162.8785 N.3     1  UNL1       -0.2703
     24 C         139.4478  145.5110  162.6296 C.3     1  UNL1        0.0897
     25 C         139.9750  145.8822  161.2753 C.3     1  UNL1        0.0897
@<TRIPOS>BOND
     1    19    20    1
     2    20    21    1
     3    21    22    1
     4    22    23    1
     5    23    18    1
     6    18    17    1
     7    17    16    1
     8    16     1    1
     9     1     2    1
    10     2     3   ar
    11     3     4   ar
    12     4     5   ar
    13     5     6   ar
    14     6     7   ar
    15     7     8    1
    16     8     9    1
    17     9    10   ar
    18    10    11   ar
    19    11    12   ar
    20    12    13    1
    21    12    14   ar
    22    14    15   ar
    23    23    24    1
    24    24    25    1
    25    25    20    1
    26    15     1    1
    27     7     2   ar
    28    15     9   ar
@<TRIPOS>MOLECULE
*****
 25 28 0 0 0
SMALL
GASTEIGER

@<TRIPOS>ATOM
      1 N         141.5954  138.9278  164.4989 N.pl3   1  UNL1       -0.2860
      2 C         140.3362  138.7317  165.2902 C.ar    1  UNL1        0.0576
      3 C         139.4664  137.5373  165.0318 C.ar    1  UNL1        0.0153
      4 C         138.2072  137.3413  165.8231 C.ar    1  UNL1        0.0013
      5 C         137.8179  138.3397  166.8727 C.ar    1  UNL1        0.0006
      6 C         138.6877  139.5341  167.1310 C.ar    1  UNL1        0.0077
      7 C         139.9468  139.7301  166.3398 C.ar    1  UNL1        0.0431
      8 S         140.8167  140.9246  166.5981 S.3     1  UNL1       -0.0844
      9 C         142.0758  141.1206  165.8068 C.ar    1  UNL1        0.0431
     10 C         142.9457  142.3151  166.0651 C.ar    1  UNL1        0.0086
     11 C         144.2048  142.5111  165.2739 C.ar    1  UNL1        0.0120
     12 C         144.5942  141.5127  164.2243 C.ar    1  UNL1        0.0589
     13 CL        145.8533  141.7087  163.4330 Cl      1  UNL1       -0.0822
     14 C         143.7244  140.3183  163.9659 C.ar    1  UNL1        0.0267
     15 C         142.4652  140.1222  164.7572 C.ar    1  UNL1        0.0585
     16 C         141.9847  137.9294  163.4493 C.3     1  UNL1        0.0970
     17 C         141.6470  138.1839  162.0101 C.3     1  UNL1        0.0391
     18 C         140.2283  138.4623  161.6105 C.3     1  UNL1        0.0739
     19 C         137.7333  143.7641  162.9014 C.3     1  UNL1        0.0897
     20 N         138.3571  142.4387  162.5787 N.3     1  UNL1       -0.2691
     21 C         137.5577  141.1780  162.7255 C.3     1  UNL1        0.0897
     22 C         138.1814  139.8525  162.4028 C.3     1  UNL1        0.0897
     23 N         139.6045  139.7878  161.9332 N.3     1  UNL1       -0.2703
     24 C         140.4039  141.0485  161.7864 C.3     1  UNL1        0.0897
     25 C         139.7802  142.3739  162.1091 C.3     1  UNL1        0.0897
@<TRIPOS>BOND
     1    19    20    1
     2    20    21    1
     3    21    22    1
     4    22    23    1
     5    23    18    1
     6    18    17    1
     7    17    16    1
     8    16     1    1
     9     1     2    1
    10     2     3   ar
    11     3     4   ar
    12     4     5   ar
    13     5     6   ar
    14     6     7   ar
    15     7     8    1
    16     8     9    1
    17     9    10   ar
    18    10    11   ar
    19    11    12   ar
    20    12    13    1
    21    12    14   ar
    22    14    15   ar
    23    23    24    1
    24    24    25    1
    25    25    20    1
    26    15     1    1
    27     7     2   ar
    28    15     9   ar
@<TRIPOS>MOLECULE
*****
 25 28 0 0 0
SMALL
GASTEIGER

@<TRIPOS>ATOM
      1 N         140.8166  142.3044  165.0865 N.pl3   1  UNL1       -0.2860
      2 C         141.9594  142.7307  164.2134 C.ar    1  UNL1        0.0576
      3 C         142.4150  144.1598  164.2189 C.ar    1  UNL1        0.0153
      4 C         143.5578  144.5860  163.3458 C.ar    1  UNL1        0.0013
      5 C         144.2450  143.5831  162.4673 C.ar    1  UNL1        0.0006
      6 C         143.7894  142.1540  162.4618 C.ar    1  UNL1        0.0077
      7 C         142.6467  141.7278  163.3349 C.ar    1  UNL1        0.0431
      8 S         142.1910  140.2986  163.3294 S.3     1  UNL1       -0.0844
      9 C         141.0482  139.8724  164.2025 C.ar    1  UNL1        0.0431
     10 C         140.5926  138.4432  164.1970 C.ar    1  UNL1        0.0086
     11 C         139.4498  138.0171  165.0701 C.ar    1  UNL1        0.0120
     12 C         138.7626  139.0200  165.9487 C.ar    1  UNL1        0.0589
     13 CL        137.6198  138.5938  166.8218 Cl      1  UNL1       -0.0822
     14 C         139.2181  140.4491  165.9542 C.ar    1  UNL1        0.0267
     15 C         140.3610  140.8753  165.0811 C.ar    1  UNL1        0.0585
     16 C         140.1293  143.3073  165.9651 C.3     1  UNL1        0.0970
     17 C         139.1314  144.2603  165.3771 C.3     1  UNL1        0.0391
     18 C         138.1503  143.7794  164.3494 C.3     1  UNL1        0.0739
     19 C         139.7122  143.6107  158.5587 C.3     1  UNL1        0.0897
     20 N         139.3217  143.6529  160.0064 N.3     1  UNL1       -0.2691
     21 C         139.8366  144.7498  160.8904 C.3     1  UNL1        0.0897
     22 C         139.4462  144.7920  162.3381 C.3     1  UNL1        0.0897
     23 N         138.5408  143.7372  162.9017 N.3     1  UNL1       -0.2703
     24 C         138.0258  142.6403  162.0176 C.3     1  UNL1        0.0897
     25 C         138.4163  142.5981  160.5700 C.3     1  UNL1        0.0897
@<TRIPOS>BOND
     1    19    20    1
     2    20    21    1
     3    21    22    1
     4    22    23    1
     5    23    18    1
     6    18    17    1
     7    17    16    1
     8    16     1    1
     9     1     2    1
    10     2     3   ar
    11     3     4   ar
    12     4     5   ar
    13     5     6   ar
    14     6     7   ar
    15     7     8    1
    16     8     9    1
    17     9    10   ar
    18    10    11   ar
    19    11    12   ar
    20    12    13    1
    21    12    14   ar
    22    14    15   ar
    23    23    24    1
    24    24    25    1
    25    25    20    1
    26    15     1    1
    27     7     2   ar
    28    15     9   ar
@<TRIPOS>MOLECULE
*****
 25 28 0 0 0
SMALL
GASTEIGER

@<TRIPOS>ATOM
      1 N         140.1964  140.9999  165.3164 N.pl3   1  UNL1       -0.2860
      2 C         139.6792  142.1224  164.4663 C.ar    1  UNL1        0.0576
      3 C         138.2765  142.6198  164.6531 C.ar    1  UNL1        0.0153
      4 C         137.7594  143.7422  163.8030 C.ar    1  UNL1        0.0013
      5 C         138.6450  144.3672  162.7661 C.ar    1  UNL1        0.0006
      6 C         140.0477  143.8697  162.5793 C.ar    1  UNL1        0.0077
      7 C         140.5648  142.7473  163.4294 C.ar    1  UNL1        0.0431
      8 S         141.9676  142.2498  163.2426 S.3     1  UNL1       -0.0844
      9 C         142.4847  141.1274  164.0928 C.ar    1  UNL1        0.0431
     10 C         143.8875  140.6299  163.9060 C.ar    1  UNL1        0.0086
     11 C         144.4046  139.5075  164.7561 C.ar    1  UNL1        0.0120
     12 C         143.5190  138.8825  165.7930 C.ar    1  UNL1        0.0589
     13 CL        144.0361  137.7601  166.6431 Cl      1  UNL1       -0.0822
     14 C         142.1163  139.3800  165.9798 C.ar    1  UNL1        0.0267
     15 C         141.5991  140.5024  165.1296 C.ar    1  UNL1        0.0585
     16 C         139.3108  140.3749  166.3533 C.3     1  UNL1        0.0970
     17 C         138.3126  139.3286  165.9550 C.3     1  UNL1        0.0391
     18 C         138.7383  138.1733  165.0984 C.3     1  UNL1        0.0739
     19 C         139.7323  138.9903  159.2379 C.3     1  UNL1        0.0897
     20 N         139.4838  138.7861  160.7030 N.3     1  UNL1       -0.2691
     21 C         140.4434  137.9729  161.5203 C.3     1  UNL1        0.0897
     22 C         140.1949  137.7686  162.9854 C.3     1  UNL1        0.0897
     23 N         138.9869  138.3775  163.6332 N.3     1  UNL1       -0.2703
     24 C         138.0272  139.1907  162.8160 C.3     1  UNL1        0.0897
     25 C         138.2757  139.3949  161.3509 C.3     1  UNL1        0.0897
@<TRIPOS>BOND
     1    19    20    1
     2    20    21    1
     3    21    22    1
     4    22    23    1
     5    23    18    1
     6    18    17    1
     7    17    16    1
     8    16     1    1
     9     1     2    1
    10     2     3   ar
    11     3     4   ar
    12     4     5   ar
    13     5     6   ar
    14     6     7   ar
    15     7     8    1
    16     8     9    1
    17     9    10   ar
    18    10    11   ar
    19    11    12   ar
    20    12    13    1
    21    12    14   ar
    22    14    15   ar
    23    23    24    1
    24    24    25    1
    25    25    20    1
    26    15     1    1
    27     7     2   ar
    28    15     9   ar
@<TRIPOS>MOLECULE
*****
 25 28 0 0 0
SMALL
GASTEIGER

@<TRIPOS>ATOM
      1 N         138.6434  141.5828  163.6813 N.pl3   1  UNL1       -0.2860
      2 C         139.3760  142.8501  163.3535 C.ar    1  UNL1        0.0576
      3 C         139.2195  143.4784  162.0005 C.ar    1  UNL1        0.0153
      4 C         139.9520  144.7456  161.6728 C.ar    1  UNL1        0.0013
      5 C         140.8411  145.3846  162.6981 C.ar    1  UNL1        0.0006
      6 C         140.9976  144.7563  164.0511 C.ar    1  UNL1        0.0077
      7 C         140.2651  143.4891  164.3788 C.ar    1  UNL1        0.0431
      8 S         140.4216  142.8608  165.7319 S.3     1  UNL1       -0.0844
      9 C         139.6890  141.5935  166.0596 C.ar    1  UNL1        0.0431
     10 C         139.8455  140.9652  167.4127 C.ar    1  UNL1        0.0086
     11 C         139.1130  139.6979  167.7404 C.ar    1  UNL1        0.0120
     12 C         138.2239  139.0590  166.7151 C.ar    1  UNL1        0.0589
     13 CL        137.4914  137.7917  167.0428 Cl      1  UNL1       -0.0822
     14 C         138.0674  139.6872  165.3621 C.ar    1  UNL1        0.0267
     15 C         138.8000  140.9545  165.0343 C.ar    1  UNL1        0.0585
     16 C         137.7544  140.9438  162.6560 C.3     1  UNL1        0.0970
     17 C         138.2288  139.7397  161.8978 C.3     1  UNL1        0.0391
     18 C         139.6889  139.5683  161.5998 C.3     1  UNL1        0.0739
     19 C         143.5142  138.2146  166.0196 C.3     1  UNL1        0.0897
     20 N         142.5578  138.5531  164.9146 N.3     1  UNL1       -0.2691
     21 C         141.4248  137.6243  164.5926 C.3     1  UNL1        0.0897
     22 C         140.4685  137.9627  163.4877 C.3     1  UNL1        0.0897
     23 N         140.6452  139.2299  162.7048 N.3     1  UNL1       -0.2703
     24 C         141.7782  140.1586  163.0268 C.3     1  UNL1        0.0897
     25 C         142.7345  139.8203  164.1317 C.3     1  UNL1        0.0897
@<TRIPOS>BOND
     1    19    20    1
     2    20    21    1
     3    21    22    1
     4    22    23    1
     5    23    18    1
     6    18    17    1
     7    17    16    1
     8    16     1    1
     9     1     2    1
    10     2     3   ar
    11     3     4   ar
    12     4     5   ar
    13     5     6   ar
    14     6     7   ar
    15     7     8    1
    16     8     9    1
    17     9    10   ar
    18    10    11   ar
    19    11    12   ar
    20    12    13    1
    21    12    14   ar
    22    14    15   ar
    23    23    24    1
    24    24    25    1
    25    25    20    1
    26    15     1    1
    27     7     2   ar
    28    15     9   ar
@<TRIPOS>MOLECULE
*****
 25 28 0 0 0
SMALL
GASTEIGER

@<TRIPOS>ATOM
      1 N         140.5800  141.7659  165.1303 N.pl3   1  UNL1       -0.2860
      2 C         139.9733  140.3945  165.1669 C.ar    1  UNL1        0.0576
      3 C         138.8645  140.0904  166.1302 C.ar    1  UNL1        0.0153
      4 C         138.2580  138.7190  166.1668 C.ar    1  UNL1        0.0013
      5 C         138.7602  137.6518  165.2401 C.ar    1  UNL1        0.0006
      6 C         139.8691  137.9559  164.2768 C.ar    1  UNL1        0.0077
      7 C         140.4756  139.3273  164.2402 C.ar    1  UNL1        0.0431
      8 S         141.5846  139.6315  163.2769 S.3     1  UNL1       -0.0844
      9 C         142.1911  141.0028  163.2403 C.ar    1  UNL1        0.0431
     10 C         143.3000  141.3070  162.2770 C.ar    1  UNL1        0.0086
     11 C         143.9066  142.6784  162.2404 C.ar    1  UNL1        0.0120
     12 C         143.4043  143.7456  163.1671 C.ar    1  UNL1        0.0589
     13 CL        144.0108  145.1170  163.1305 Cl      1  UNL1       -0.0822
     14 C         142.2954  143.4415  164.1304 C.ar    1  UNL1        0.0267
     15 C         141.6888  142.0701  164.1670 C.ar    1  UNL1        0.0585
     16 C         140.0777  142.8332  166.0569 C.3     1  UNL1        0.0970
     17 C         139.1995  143.9300  165.5318 C.3     1  UNL1        0.0391
     18 C         138.3480  143.6936  164.3197 C.3     1  UNL1        0.0739
     19 C         140.4221  145.1166  158.8724 C.3     1  UNL1        0.0897
     20 N         139.9036  144.7608  160.2342 N.3     1  UNL1       -0.2691
     21 C         139.9264  145.7794  161.3351 C.3     1  UNL1        0.0897
     22 C         139.4078  145.4237  162.6969 C.3     1  UNL1        0.0897
     23 N         138.8665  144.0494  162.9578 N.3     1  UNL1       -0.2703
     24 C         138.8438  143.0308  161.8570 C.3     1  UNL1        0.0897
     25 C         139.3623  143.3865  160.4952 C.3     1  UNL1        0.0897
@<TRIPOS>BOND
     1    19    20    1
     2    20    21    1
     3    21    22    1
     4    22    23    1
     5    23    18    1
     6    18    17    1
     7    17    16    1
     8    16     1    1
     9     1     2    1
    10     2     3   ar
    11     3     4   ar
    12     4     5   ar
    13     5     6   ar
    14     6     7   ar
    15     7     8    1
    16     8     9    1
    17     9    10   ar
    18    10    11   ar
    19    11    12   ar
    20    12    13    1
    21    12    14   ar
    22    14    15   ar
    23    23    24    1
    24    24    25    1
    25    25    20    1
    26    15     1    1
    27     7     2   ar
    28    15     9   ar
@<TRIPOS>MOLECULE
*****
 25 28 0 0 0
SMALL
GASTEIGER

@<TRIPOS>ATOM
      1 N         139.3194  140.4086  166.0147 N.pl3   1  UNL1       -0.2860
      2 C         138.9587  141.3313  164.8884 C.ar    1  UNL1        0.0576
      3 C         137.7666  141.0342  164.0279 C.ar    1  UNL1        0.0153
      4 C         137.4060  141.9569  162.9016 C.ar    1  UNL1        0.0013
      5 C         138.2374  143.1767  162.6358 C.ar    1  UNL1        0.0006
      6 C         139.4296  143.4739  163.4963 C.ar    1  UNL1        0.0077
      7 C         139.7902  142.5512  164.6226 C.ar    1  UNL1        0.0431
      8 S         140.9824  142.8483  165.4832 S.3     1  UNL1       -0.0844
      9 C         141.3430  141.9257  166.6094 C.ar    1  UNL1        0.0431
     10 C         142.5352  142.2228  167.4700 C.ar    1  UNL1        0.0086
     11 C         142.8959  141.3001  168.5963 C.ar    1  UNL1        0.0120
     12 C         142.0644  140.0803  168.8621 C.ar    1  UNL1        0.0589
     13 CL        142.4250  139.1576  169.9883 Cl      1  UNL1       -0.0822
     14 C         140.8723  139.7831  168.0016 C.ar    1  UNL1        0.0267
     15 C         140.5116  140.7058  166.8752 C.ar    1  UNL1        0.0585
     16 C         138.4880  139.1888  166.2805 C.3     1  UNL1        0.0970
     17 C         138.6110  137.9885  165.3894 C.3     1  UNL1        0.0391
     18 C         139.9603  137.5530  164.8999 C.3     1  UNL1        0.0739
     19 C         141.5328  138.5115  159.1894 C.3     1  UNL1        0.0897
     20 N         141.1397  138.2719  160.6171 N.3     1  UNL1       -0.2691
     21 C         142.1953  138.0338  161.6558 C.3     1  UNL1        0.0897
     22 C         141.8022  137.7941  163.0834 C.3     1  UNL1        0.0897
     23 N         140.3535  137.7926  163.4722 N.3     1  UNL1       -0.2703
     24 C         139.2979  138.0307  162.4335 C.3     1  UNL1        0.0897
     25 C         139.6910  138.2703  161.0059 C.3     1  UNL1        0.0897
@<TRIPOS>BOND
     1    19    20    1
     2    20    21    1
     3    21    22    1
     4    22    23    1
     5    23    18    1
     6    18    17    1
     7    17    16    1
     8    16     1    1
     9     1     2    1
    10     2     3   ar
    11     3     4   ar
    12     4     5   ar
    13     5     6   ar
    14     6     7   ar
    15     7     8    1
    16     8     9    1
    17     9    10   ar
    18    10    11   ar
    19    11    12   ar
    20    12    13    1
    21    12    14   ar
    22    14    15   ar
    23    23    24    1
    24    24    25    1
    25    25    20    1
    26    15     1    1
    27     7     2   ar
    28    15     9   ar
@<TRIPOS>MOLECULE
*****
 25 28 0 0 0
SMALL
GASTEIGER

@<TRIPOS>ATOM
      1 N         139.0488  140.0566  165.1304 N.pl3   1  UNL1       -0.2860
      2 C         138.7207  140.8981  163.9327 C.ar    1  UNL1        0.0576
      3 C         138.0955  140.2694  162.7229 C.ar    1  UNL1        0.0153
      4 C         137.7675  141.1109  161.5253 C.ar    1  UNL1        0.0013
      5 C         138.0647  142.5811  161.5376 C.ar    1  UNL1        0.0006
      6 C         138.6900  143.2098  162.7474 C.ar    1  UNL1        0.0077
      7 C         139.0180  142.3683  163.9450 C.ar    1  UNL1        0.0431
      8 S         139.6433  142.9970  165.1550 S.3     1  UNL1       -0.0844
      9 C         139.9713  142.1555  166.3525 C.ar    1  UNL1        0.0431
     10 C         140.5965  142.7841  167.5625 C.ar    1  UNL1        0.0086
     11 C         140.9246  141.9426  168.7600 C.ar    1  UNL1        0.0120
     12 C         140.6273  140.4724  168.7477 C.ar    1  UNL1        0.0589
     13 CL        140.9553  139.6309  169.9453 Cl      1  UNL1       -0.0822
     14 C         140.0021  139.8437  167.5379 C.ar    1  UNL1        0.0267
     15 C         139.6740  140.6853  166.3402 C.ar    1  UNL1        0.0585
     16 C         138.7515  138.5864  165.1181 C.3     1  UNL1        0.0970
     17 C         139.6247  137.6512  164.3353 C.3     1  UNL1        0.0391
     18 C         141.0607  137.4621  164.7256 C.3     1  UNL1        0.0739
     19 C         145.2099  141.3891  162.8918 C.3     1  UNL1        0.0897
     20 N         144.1726  140.4073  163.3503 N.3     1  UNL1       -0.2691
     21 C         142.9388  140.1810  162.5278 C.3     1  UNL1        0.0897
     22 C         141.9015  139.1993  162.9863 C.3     1  UNL1        0.0897
     23 N         142.0980  138.4439  164.2672 N.3     1  UNL1       -0.2703
     24 C         143.3318  138.6703  165.0896 C.3     1  UNL1        0.0897
     25 C         144.3691  139.6520  164.6312 C.3     1  UNL1        0.0897
@<TRIPOS>BOND
     1    19    20    1
     2    20    21    1
     3    21    22    1
     4    22    23    1
     5    23    18    1
     6    18    17    1
     7    17    16    1
     8    16     1    1
     9     1     2    1
    10     2     3   ar
    11     3     4   ar
    12     4     5   ar
    13     5     6   ar
    14     6     7   ar
    15     7     8    1
    16     8     9    1
    17     9    10   ar
    18    10    11   ar
    19    11    12   ar
    20    12    13    1
    21    12    14   ar
    22    14    15   ar
    23    23    24    1
    24    24    25    1
    25    25    20    1
    26    15     1    1
    27     7     2   ar
    28    15     9   ar
