@<TRIPOS>MOLECULE
*****
 32 36 0 0 0
SMALL
GASTEIGER

@<TRIPOS>ATOM
      1 C         139.0298  141.2228  160.8848 C.3     1  UNL1        0.1148
      2 N         139.4347  139.7918  161.0802 N.am    1  UNL1       -0.2790
      3 C         138.9682  139.0389  162.2908 C.2     1  UNL1        0.2301
      4 O         139.3731  137.6078  162.4862 O.2     1  UNL1       -0.2745
      5 C         140.3062  139.1135  160.0650 C.3     1  UNL1        0.0782
      6 C         139.7408  138.7250  158.7311 C.3     1  UNL1        0.0372
      7 C         140.6123  138.0468  157.7158 C.3     1  UNL1        0.0741
      8 N         142.0491  137.7571  158.0346 N.3     1  UNL1       -0.2671
      9 C         142.6145  138.1457  159.3686 C.3     1  UNL1        0.0741
     10 C         141.7430  138.8239  160.3837 C.3     1  UNL1        0.0372
     11 C         142.9206  137.0789  157.0194 C.3     1  UNL1        0.1255
     12 C         142.7099  135.6287  156.6992 C.ar    1  UNL1        0.1037
     13 N         141.7272  135.0783  155.7085 N.ar    1  UNL1       -0.2460
     14 C         141.8548  133.5837  155.7104 C.ar    1  UNL1        0.0612
     15 C         142.9164  133.2105  156.7022 C.ar    1  UNL1        0.0219
     16 S         143.4448  134.4743  157.3133 S.2     1  UNL1       -0.0741
     17 C         143.2647  131.7680  156.9208 C.3     1  UNL1        0.0342
     18 C         142.5514  130.6987  156.1475 C.3     1  UNL1        0.0057
     19 C         141.4899  131.0720  155.1557 C.3     1  UNL1        0.0067
     20 C         141.1416  132.5145  154.9371 C.3     1  UNL1        0.0460
     21 C         138.0968  139.7171  163.3060 C.3     1  UNL1        0.1116
     22 C         138.5805  139.8874  164.7156 C.ar    1  UNL1       -0.0130
     23 C         138.0507  139.0000  165.8027 C.ar    1  UNL1       -0.0022
     24 C         138.5345  139.1703  167.2123 C.ar    1  UNL1        0.0190
     25 C         139.5480  140.2280  167.5348 C.ar    1  UNL1        0.0862
     26 C         140.0777  141.1154  166.4477 C.ar    1  UNL1        0.0190
     27 C         139.5940  140.9451  165.0381 C.ar    1  UNL1       -0.0022
     28 N         140.0317  140.3983  168.9444 N.ar    1  UNL1       -0.1886
     29 C         141.3704  140.9333  169.3586 C.ar    1  UNL1        0.2258
     30 N         141.4278  140.9292  170.8575 N.ar    1  UNL1       -0.1045
     31 N         140.1245  140.3916  171.3697 N.ar    1  UNL1       -0.0222
     32 N         139.2617  140.0635  170.1874 N.ar    1  UNL1       -0.0385
@<TRIPOS>BOND
     1     1     2    1
     2     2     3   am
     3     3     4    2
     4     3    21    1
     5    21    22    1
     6    22    23   ar
     7    23    24   ar
     8    24    25   ar
     9    25    28    1
    10    28    29   ar
    11    29    30   ar
    12    30    31   ar
    13    31    32   ar
    14    25    26   ar
    15    26    27   ar
    16     2     5    1
    17     5     6    1
    18     6     7    1
    19     7     8    1
    20     8    11    1
    21    11    12    1
    22    12    13   ar
    23    13    14   ar
    24    14    15   ar
    25    15    16   ar
    26    15    17    1
    27    17    18    1
    28    18    19    1
    29    19    20    1
    30     8     9    1
    31     9    10    1
    32    27    22   ar
    33    10     5    1
    34    32    28   ar
    35    16    12   ar
    36    20    14    1
@<TRIPOS>MOLECULE
*****
 32 36 0 0 0
SMALL
GASTEIGER

@<TRIPOS>ATOM
      1 C         138.7701  137.6197  163.1300 C.3     1  UNL1        0.1148
      2 N         139.4226  138.7972  162.4684 N.am    1  UNL1       -0.2790
      3 C         139.2144  140.1771  163.0183 C.2     1  UNL1        0.2301
      4 O         139.8669  141.3546  162.3566 O.2     1  UNL1       -0.2745
      5 C         140.2834  138.5947  161.2567 C.3     1  UNL1        0.0782
      6 C         139.7141  138.8163  159.8867 C.3     1  UNL1        0.0372
      7 C         140.5749  138.6139  158.6750 C.3     1  UNL1        0.0741
      8 N         142.0050  138.1899  158.8334 N.3     1  UNL1       -0.2671
      9 C         142.5743  137.9683  160.2034 C.3     1  UNL1        0.0741
     10 C         141.7135  138.1707  161.4150 C.3     1  UNL1        0.0372
     11 C         142.8657  137.9874  157.6218 C.3     1  UNL1        0.1255
     12 C         142.7715  136.7110  156.8395 C.ar    1  UNL1        0.1037
     13 N         143.0545  135.3338  157.3621 N.ar    1  UNL1       -0.2460
     14 C         142.8357  134.3593  156.2430 C.ar    1  UNL1        0.0612
     15 C         142.4173  135.1343  155.0287 C.ar    1  UNL1        0.0219
     16 S         142.3777  136.5877  155.3974 S.2     1  UNL1       -0.0741
     17 C         142.1265  134.4164  153.7442 C.3     1  UNL1        0.0342
     18 C         142.2541  132.9235  153.6739 C.3     1  UNL1        0.0057
     19 C         142.6724  132.1485  154.8882 C.3     1  UNL1        0.0067
     20 C         142.9632  132.8664  156.1727 C.3     1  UNL1        0.0460
     21 C         138.3536  140.3795  164.2300 C.3     1  UNL1        0.1116
     22 C         138.9801  140.7493  165.5418 C.ar    1  UNL1       -0.0130
     23 C         139.6311  142.0901  165.7105 C.ar    1  UNL1       -0.0022
     24 C         140.2577  142.4598  167.0223 C.ar    1  UNL1        0.0190
     25 C         140.2331  141.4888  168.1653 C.ar    1  UNL1        0.0862
     26 C         139.5821  140.1481  167.9965 C.ar    1  UNL1        0.0190
     27 C         138.9556  139.7783  166.6848 C.ar    1  UNL1       -0.0022
     28 N         140.8597  141.8586  169.4771 N.ar    1  UNL1       -0.1886
     29 C         141.9745  142.8424  169.6756 C.ar    1  UNL1        0.2258
     30 N         142.2852  142.9013  171.1419 N.ar    1  UNL1       -0.1045
     31 N         141.3624  141.9539  171.8496 N.ar    1  UNL1       -0.0222
     32 N         140.4814  141.3095  170.8207 N.ar    1  UNL1       -0.0385
@<TRIPOS>BOND
     1     1     2    1
     2     2     3   am
     3     3     4    2
     4     3    21    1
     5    21    22    1
     6    22    23   ar
     7    23    24   ar
     8    24    25   ar
     9    25    28    1
    10    28    29   ar
    11    29    30   ar
    12    30    31   ar
    13    31    32   ar
    14    25    26   ar
    15    26    27   ar
    16     2     5    1
    17     5     6    1
    18     6     7    1
    19     7     8    1
    20     8    11    1
    21    11    12    1
    22    12    13   ar
    23    13    14   ar
    24    14    15   ar
    25    15    16   ar
    26    15    17    1
    27    17    18    1
    28    18    19    1
    29    19    20    1
    30     8     9    1
    31     9    10    1
    32    27    22   ar
    33    10     5    1
    34    32    28   ar
    35    16    12   ar
    36    20    14    1
@<TRIPOS>MOLECULE
*****
 32 36 0 0 0
SMALL
GASTEIGER

@<TRIPOS>ATOM
      1 C         144.8414  139.5367  163.8208 C.3     1  UNL1        0.1148
      2 N         143.6181  139.5940  162.9548 N.am    1  UNL1       -0.2790
      3 C         142.3470  138.9390  163.4080 C.2     1  UNL1        0.2301
      4 O         141.1236  138.9963  162.5419 O.2     1  UNL1       -0.2745
      5 C         143.6657  140.3062  161.6355 C.3     1  UNL1        0.0782
      6 C         143.6209  141.8048  161.5902 C.3     1  UNL1        0.0372
      7 C         143.6686  142.5171  160.2709 C.3     1  UNL1        0.0741
      8 N         143.7611  141.7307  158.9970 N.3     1  UNL1       -0.2671
      9 C         143.8059  140.2320  159.0423 C.3     1  UNL1        0.0741
     10 C         143.7582  139.5198  160.3615 C.3     1  UNL1        0.0372
     11 C         143.8087  142.4429  157.6777 C.3     1  UNL1        0.1255
     12 C         145.0019  142.2846  156.7826 C.ar    1  UNL1        0.1037
     13 N         146.4373  142.2866  157.2181 N.ar    1  UNL1       -0.2460
     14 C         147.2917  142.0997  155.9994 C.ar    1  UNL1        0.0612
     15 C         146.3844  141.9821  154.8108 C.ar    1  UNL1        0.0219
     16 S         144.9692  142.0964  155.2948 S.2     1  UNL1       -0.0741
     17 C         146.9640  141.7862  153.4413 C.3     1  UNL1        0.0342
     18 C         148.4510  141.7078  153.2604 C.3     1  UNL1        0.0057
     19 C         149.3583  141.8254  154.4491 C.3     1  UNL1        0.0067
     20 C         148.7787  142.0213  155.8186 C.3     1  UNL1        0.0460
     21 C         142.2993  138.2267  164.7272 C.3     1  UNL1        0.1116
     22 C         141.9315  138.9780  165.9723 C.ar    1  UNL1       -0.0130
     23 C         140.5791  139.6158  166.0916 C.ar    1  UNL1       -0.0022
     24 C         140.2113  140.3671  167.3367 C.ar    1  UNL1        0.0190
     25 C         141.1959  140.4806  168.4625 C.ar    1  UNL1        0.0862
     26 C         142.5483  139.8428  168.3433 C.ar    1  UNL1        0.0190
     27 C         142.9161  139.0915  167.0982 C.ar    1  UNL1       -0.0022
     28 N         140.8281  141.2319  169.7076 N.ar    1  UNL1       -0.1886
     29 C         139.9493  142.4455  169.7780 C.ar    1  UNL1        0.2258
     30 N         139.8526  142.8652  171.2148 N.ar    1  UNL1       -0.1045
     31 N         140.6716  141.9109  172.0326 N.ar    1  UNL1       -0.0222
     32 N         141.2745  140.9016  171.1010 N.ar    1  UNL1       -0.0385
@<TRIPOS>BOND
     1     1     2    1
     2     2     3   am
     3     3     4    2
     4     3    21    1
     5    21    22    1
     6    22    23   ar
     7    23    24   ar
     8    24    25   ar
     9    25    28    1
    10    28    29   ar
    11    29    30   ar
    12    30    31   ar
    13    31    32   ar
    14    25    26   ar
    15    26    27   ar
    16     2     5    1
    17     5     6    1
    18     6     7    1
    19     7     8    1
    20     8    11    1
    21    11    12    1
    22    12    13   ar
    23    13    14   ar
    24    14    15   ar
    25    15    16   ar
    26    15    17    1
    27    17    18    1
    28    18    19    1
    29    19    20    1
    30     8     9    1
    31     9    10    1
    32    27    22   ar
    33    10     5    1
    34    32    28   ar
    35    16    12   ar
    36    20    14    1
@<TRIPOS>MOLECULE
*****
 32 36 0 0 0
SMALL
GASTEIGER

@<TRIPOS>ATOM
      1 C         139.4226  141.1047  161.3146 C.3     1  UNL1        0.1148
      2 N         139.7135  139.6332  161.3080 N.am    1  UNL1       -0.2790
      3 C         139.3195  138.7855  162.4810 C.2     1  UNL1        0.2301
      4 O         139.6105  137.3139  162.4744 O.2     1  UNL1       -0.2745
      5 C         140.3985  139.0094  160.1282 C.3     1  UNL1        0.0782
      6 C         141.8573  138.6683  160.2020 C.3     1  UNL1        0.0372
      7 C         142.5423  138.0445  159.0222 C.3     1  UNL1        0.0741
      8 N         141.7684  137.7618  157.7688 N.3     1  UNL1       -0.2671
      9 C         140.3095  138.1030  157.6950 C.3     1  UNL1        0.0741
     10 C         139.6246  138.7268  158.8747 C.3     1  UNL1        0.0372
     11 C         142.4533  137.1381  156.5891 C.3     1  UNL1        0.1255
     12 C         142.3851  135.6542  156.3804 C.ar    1  UNL1        0.1037
     13 N         143.2081  134.6244  157.0962 N.ar    1  UNL1       -0.2460
     14 C         142.8135  133.2734  156.5775 C.ar    1  UNL1        0.0612
     15 C         141.7467  133.4681  155.5412 C.ar    1  UNL1        0.0219
     16 S         141.4820  134.9396  155.4194 S.2     1  UNL1       -0.0741
     17 C         141.1542  132.2805  154.8423 C.3     1  UNL1        0.0342
     18 C         141.6286  130.8981  155.1798 C.3     1  UNL1        0.0057
     19 C         142.6954  130.7033  156.2161 C.3     1  UNL1        0.0067
     20 C         143.2879  131.8910  156.9150 C.3     1  UNL1        0.0460
     21 C         138.6346  139.4092  163.6607 C.3     1  UNL1        0.1116
     22 C         139.3704  139.5666  164.9584 C.ar    1  UNL1       -0.0130
     23 C         140.8674  139.6603  164.9651 C.ar    1  UNL1       -0.0022
     24 C         141.6032  139.8177  166.2628 C.ar    1  UNL1        0.0190
     25 C         140.8419  139.8813  167.5536 C.ar    1  UNL1        0.0862
     26 C         139.3449  139.7876  167.5469 C.ar    1  UNL1        0.0190
     27 C         138.6091  139.6302  166.2493 C.ar    1  UNL1       -0.0022
     28 N         141.5777  140.0387  168.8513 N.ar    1  UNL1       -0.1886
     29 C         141.2196  140.9848  169.9588 C.ar    1  UNL1        0.2258
     30 N         142.2214  140.8085  171.0612 N.ar    1  UNL1       -0.1045
     31 N         143.1987  139.7533  170.6351 N.ar    1  UNL1       -0.0222
     32 N         142.8009  139.2776  169.2692 N.ar    1  UNL1       -0.0385
@<TRIPOS>BOND
     1     1     2    1
     2     2     3   am
     3     3     4    2
     4     3    21    1
     5    21    22    1
     6    22    23   ar
     7    23    24   ar
     8    24    25   ar
     9    25    28    1
    10    28    29   ar
    11    29    30   ar
    12    30    31   ar
    13    31    32   ar
    14    25    26   ar
    15    26    27   ar
    16     2     5    1
    17     5     6    1
    18     6     7    1
    19     7     8    1
    20     8    11    1
    21    11    12    1
    22    12    13   ar
    23    13    14   ar
    24    14    15   ar
    25    15    16   ar
    26    15    17    1
    27    17    18    1
    28    18    19    1
    29    19    20    1
    30     8     9    1
    31     9    10    1
    32    27    22   ar
    33    10     5    1
    34    32    28   ar
    35    16    12   ar
    36    20    14    1
@<TRIPOS>MOLECULE
*****
 32 36 0 0 0
SMALL
GASTEIGER

@<TRIPOS>ATOM
      1 C         138.7589  140.2415  162.5264 C.3     1  UNL1        0.1148
      2 N         139.6955  139.0835  162.3485 N.am    1  UNL1       -0.2790
      3 C         139.8174  138.0454  163.4243 C.2     1  UNL1        0.2301
      4 O         140.7541  136.8873  163.2464 O.2     1  UNL1       -0.2745
      5 C         140.5103  138.9636  161.0948 C.3     1  UNL1        0.0782
      6 C         139.8472  138.5900  159.8022 C.3     1  UNL1        0.0372
      7 C         140.6620  138.4701  158.5485 C.3     1  UNL1        0.0741
      8 N         142.1399  138.7239  158.5874 N.3     1  UNL1       -0.2671
      9 C         142.8030  139.0976  159.8800 C.3     1  UNL1        0.0741
     10 C         141.9882  139.2175  161.1336 C.3     1  UNL1        0.0372
     11 C         142.9547  138.6040  157.3337 C.3     1  UNL1        0.1255
     12 C         142.7603  137.4286  156.4224 C.ar    1  UNL1        0.1037
     13 N         142.2852  137.4842  155.0007 N.ar    1  UNL1       -0.2460
     14 C         142.2382  136.0811  154.4724 C.ar    1  UNL1        0.0612
     15 C         142.6842  135.1583  155.5676 C.ar    1  UNL1        0.0219
     16 S         143.0069  135.9911  156.7727 S.2     1  UNL1       -0.0741
     17 C         142.7390  133.6789  155.3259 C.3     1  UNL1        0.0342
     18 C         142.3476  133.1224  153.9892 C.3     1  UNL1        0.0057
     19 C         141.9015  134.0452  152.8940 C.3     1  UNL1        0.0067
     20 C         141.8468  135.5246  153.1356 C.3     1  UNL1        0.0460
     21 C         139.0027  138.1652  164.6780 C.3     1  UNL1        0.1116
     22 C         139.5220  138.9642  165.8365 C.ar    1  UNL1       -0.0130
     23 C         138.6609  139.1783  167.0459 C.ar    1  UNL1       -0.0022
     24 C         139.1802  139.9773  168.2043 C.ar    1  UNL1        0.0190
     25 C         140.5605  140.5621  168.1533 C.ar    1  UNL1        0.0862
     26 C         141.4216  140.3480  166.9439 C.ar    1  UNL1        0.0190
     27 C         140.9023  139.5490  165.7855 C.ar    1  UNL1       -0.0022
     28 N         141.0798  141.3611  169.3118 N.ar    1  UNL1       -0.1886
     29 C         141.1843  140.8895  170.7319 C.ar    1  UNL1        0.2258
     30 N         141.7548  142.0089  171.5513 N.ar    1  UNL1       -0.1045
     31 N         142.0030  143.1723  170.6376 N.ar    1  UNL1       -0.0222
     32 N         141.5858  142.7719  169.2536 N.ar    1  UNL1       -0.0385
@<TRIPOS>BOND
     1     1     2    1
     2     2     3   am
     3     3     4    2
     4     3    21    1
     5    21    22    1
     6    22    23   ar
     7    23    24   ar
     8    24    25   ar
     9    25    28    1
    10    28    29   ar
    11    29    30   ar
    12    30    31   ar
    13    31    32   ar
    14    25    26   ar
    15    26    27   ar
    16     2     5    1
    17     5     6    1
    18     6     7    1
    19     7     8    1
    20     8    11    1
    21    11    12    1
    22    12    13   ar
    23    13    14   ar
    24    14    15   ar
    25    15    16   ar
    26    15    17    1
    27    17    18    1
    28    18    19    1
    29    19    20    1
    30     8     9    1
    31     9    10    1
    32    27    22   ar
    33    10     5    1
    34    32    28   ar
    35    16    12   ar
    36    20    14    1
@<TRIPOS>MOLECULE
*****
 32 36 0 0 0
SMALL
GASTEIGER

@<TRIPOS>ATOM
      1 C         138.1621  140.6459  161.0627 C.3     1  UNL1        0.1148
      2 N         138.2945  142.1387  160.9986 N.am    1  UNL1       -0.2790
      3 C         137.9434  142.9748  162.1934 C.2     1  UNL1        0.2301
      4 O         138.0757  144.4676  162.1292 O.2     1  UNL1       -0.2745
      5 C         138.7779  142.7954  159.7395 C.3     1  UNL1        0.0782
      6 C         138.0910  142.5149  158.4359 C.3     1  UNL1        0.0372
      7 C         138.5745  143.1716  157.1769 C.3     1  UNL1        0.0741
      8 N         139.7448  144.1088  157.2216 N.3     1  UNL1       -0.2671
      9 C         140.4317  144.3893  158.5253 C.3     1  UNL1        0.0741
     10 C         139.9483  143.7326  159.7842 C.3     1  UNL1        0.0372
     11 C         140.2283  144.7655  155.9626 C.3     1  UNL1        0.1255
     12 C         139.9051  146.2058  155.6962 C.ar    1  UNL1        0.1037
     13 N         139.1208  147.1144  156.5958 N.ar    1  UNL1       -0.2460
     14 C         139.0404  148.4606  155.9390 C.ar    1  UNL1        0.0612
     15 C         139.7750  148.3840  154.6335 C.ar    1  UNL1        0.0219
     16 S         140.3094  146.9904  154.4834 S.2     1  UNL1       -0.0741
     17 C         139.8624  149.5930  153.7500 C.3     1  UNL1        0.0342
     18 C         139.2152  150.8786  154.1720 C.3     1  UNL1        0.0057
     19 C         138.4805  150.9553  155.4776 C.3     1  UNL1        0.0067
     20 C         138.3931  149.7463  156.3611 C.3     1  UNL1        0.0460
     21 C         137.4599  142.3182  163.4524 C.3     1  UNL1        0.1116
     22 C         138.4279  142.0062  164.5550 C.ar    1  UNL1       -0.0130
     23 C         139.3310  143.0796  165.0862 C.ar    1  UNL1       -0.0022
     24 C         140.2990  142.7677  166.1888 C.ar    1  UNL1        0.0190
     25 C         140.3639  141.3823  166.7601 C.ar    1  UNL1        0.0862
     26 C         139.4609  140.3089  166.2289 C.ar    1  UNL1        0.0190
     27 C         138.4929  140.6209  165.1264 C.ar    1  UNL1       -0.0022
     28 N         141.3319  141.0704  167.8627 N.ar    1  UNL1       -0.1886
     29 C         142.0789  139.7820  168.0419 C.ar    1  UNL1        0.2258
     30 N         142.9315  139.9074  169.2696 N.ar    1  UNL1       -0.1045
     31 N         142.7115  141.2733  169.8492 N.ar    1  UNL1       -0.0222
     32 N         141.7229  141.9920  168.9797 N.ar    1  UNL1       -0.0385
@<TRIPOS>BOND
     1     1     2    1
     2     2     3   am
     3     3     4    2
     4     3    21    1
     5    21    22    1
     6    22    23   ar
     7    23    24   ar
     8    24    25   ar
     9    25    28    1
    10    28    29   ar
    11    29    30   ar
    12    30    31   ar
    13    31    32   ar
    14    25    26   ar
    15    26    27   ar
    16     2     5    1
    17     5     6    1
    18     6     7    1
    19     7     8    1
    20     8    11    1
    21    11    12    1
    22    12    13   ar
    23    13    14   ar
    24    14    15   ar
    25    15    16   ar
    26    15    17    1
    27    17    18    1
    28    18    19    1
    29    19    20    1
    30     8     9    1
    31     9    10    1
    32    27    22   ar
    33    10     5    1
    34    32    28   ar
    35    16    12   ar
    36    20    14    1
@<TRIPOS>MOLECULE
*****
 32 36 0 0 0
SMALL
GASTEIGER

@<TRIPOS>ATOM
      1 C         144.6386  140.3043  162.8646 C.3     1  UNL1        0.1148
      2 N         143.5273  140.9555  162.0959 N.am    1  UNL1       -0.2790
      3 C         142.9802  142.2784  162.5440 C.2     1  UNL1        0.2301
      4 O         141.8689  142.9296  161.7752 O.2     1  UNL1       -0.2745
      5 C         142.9630  140.2838  160.8792 C.3     1  UNL1        0.0782
      6 C         141.8209  139.3211  161.0157 C.3     1  UNL1        0.0372
      7 C         141.2566  138.6494  159.7989 C.3     1  UNL1        0.0741
      8 N         141.8344  138.9406  158.4456 N.3     1  UNL1       -0.2671
      9 C         142.9765  139.9034  158.3091 C.3     1  UNL1        0.0741
     10 C         143.5408  140.5750  159.5259 C.3     1  UNL1        0.0372
     11 C         141.2702  138.2690  157.2289 C.3     1  UNL1        0.1255
     12 C         141.7956  136.9314  156.7989 C.ar    1  UNL1        0.1037
     13 N         142.9228  136.1788  157.4415 N.ar    1  UNL1       -0.2460
     14 C         143.1099  134.8939  156.6907 C.ar    1  UNL1        0.0612
     15 C         142.0983  134.8522  155.5839 C.ar    1  UNL1        0.0219
     16 S         141.2860  136.1115  155.6509 S.2     1  UNL1       -0.0741
     17 C         142.0475  133.6731  154.6582 C.3     1  UNL1        0.0342
     18 C         143.0083  132.5356  154.8393 C.3     1  UNL1        0.0057
     19 C         144.0199  132.5772  155.9460 C.3     1  UNL1        0.0067
     20 C         144.0707  133.7563  156.8717 C.3     1  UNL1        0.0460
     21 C         143.5444  142.9501  163.7607 C.3     1  UNL1        0.1116
     22 C         142.8511  142.8110  165.0836 C.ar    1  UNL1       -0.0130
     23 C         141.3679  143.0132  165.1779 C.ar    1  UNL1       -0.0022
     24 C         140.6745  142.8742  166.5007 C.ar    1  UNL1        0.0190
     25 C         141.4645  142.5330  167.7293 C.ar    1  UNL1        0.0862
     26 C         142.9478  142.3308  167.6350 C.ar    1  UNL1        0.0190
     27 C         143.6411  142.4698  166.3122 C.ar    1  UNL1       -0.0022
     28 N         140.7712  142.3940  169.0522 N.ar    1  UNL1       -0.1886
     29 C         140.6004  141.1221  169.8288 C.ar    1  UNL1        0.2258
     30 N         139.8506  141.4445  171.0873 N.ar    1  UNL1       -0.1045
     31 N         139.5580  142.9157  171.0886 N.ar    1  UNL1       -0.0222
     32 N         140.1270  143.5025  169.8308 N.ar    1  UNL1       -0.0385
@<TRIPOS>BOND
     1     1     2    1
     2     2     3   am
     3     3     4    2
     4     3    21    1
     5    21    22    1
     6    22    23   ar
     7    23    24   ar
     8    24    25   ar
     9    25    28    1
    10    28    29   ar
    11    29    30   ar
    12    30    31   ar
    13    31    32   ar
    14    25    26   ar
    15    26    27   ar
    16     2     5    1
    17     5     6    1
    18     6     7    1
    19     7     8    1
    20     8    11    1
    21    11    12    1
    22    12    13   ar
    23    13    14   ar
    24    14    15   ar
    25    15    16   ar
    26    15    17    1
    27    17    18    1
    28    18    19    1
    29    19    20    1
    30     8     9    1
    31     9    10    1
    32    27    22   ar
    33    10     5    1
    34    32    28   ar
    35    16    12   ar
    36    20    14    1
@<TRIPOS>MOLECULE
*****
 32 36 0 0 0
SMALL
GASTEIGER

@<TRIPOS>ATOM
      1 C         144.8696  139.4893  163.9267 C.3     1  UNL1        0.1148
      2 N         143.6640  139.6033  163.0417 N.am    1  UNL1       -0.2790
      3 C         142.3610  138.9940  163.4671 C.2     1  UNL1        0.2301
      4 O         141.1553  139.1081  162.5819 O.2     1  UNL1       -0.2745
      5 C         143.7613  140.3267  161.7312 C.3     1  UNL1        0.0782
      6 C         143.9436  141.8153  161.7079 C.3     1  UNL1        0.0372
      7 C         144.0409  142.5387  160.3974 C.3     1  UNL1        0.0741
      8 N         143.9560  141.7733  159.1102 N.3     1  UNL1       -0.2671
      9 C         143.7737  140.2845  159.1335 C.3     1  UNL1        0.0741
     10 C         143.6764  139.5613  160.4440 C.3     1  UNL1        0.0372
     11 C         144.0533  142.4966  157.7997 C.3     1  UNL1        0.1255
     12 C         142.8653  143.2382  157.2624 C.ar    1  UNL1        0.1037
     13 N         142.5128  144.6670  157.5526 N.ar    1  UNL1       -0.2460
     14 C         141.2510  144.9932  156.8100 C.ar    1  UNL1        0.0612
     15 C         140.8236  143.7659  156.0609 C.ar    1  UNL1        0.0219
     16 S         141.8213  142.6813  156.3405 S.2     1  UNL1       -0.0741
     17 C         139.5812  143.7946  155.2210 C.3     1  UNL1        0.0342
     18 C         138.7661  145.0505  155.1302 C.3     1  UNL1        0.0057
     19 C         139.1935  146.2778  155.8793 C.3     1  UNL1        0.0067
     20 C         140.4359  146.2491  156.7192 C.3     1  UNL1        0.0460
     21 C         142.2636  138.2707  164.7775 C.3     1  UNL1        0.1116
     22 C         141.8874  139.0197  166.0215 C.ar    1  UNL1       -0.0130
     23 C         140.5003  139.5694  166.1754 C.ar    1  UNL1       -0.0022
     24 C         140.1242  140.3184  167.4194 C.ar    1  UNL1        0.0190
     25 C         141.1351  140.5177  168.5094 C.ar    1  UNL1        0.0862
     26 C         142.5222  139.9681  168.3555 C.ar    1  UNL1        0.0190
     27 C         142.8984  139.2190  167.1115 C.ar    1  UNL1       -0.0022
     28 N         140.7589  141.2668  169.7534 N.ar    1  UNL1       -0.1886
     29 C         141.3715  141.0860  171.1106 C.ar    1  UNL1        0.2258
     30 N         140.6953  142.0355  172.0546 N.ar    1  UNL1       -0.1045
     31 N         139.6648  142.8032  171.2808 N.ar    1  UNL1       -0.0222
     32 N         139.7041  142.3281  169.8586 N.ar    1  UNL1       -0.0385
@<TRIPOS>BOND
     1     1     2    1
     2     2     3   am
     3     3     4    2
     4     3    21    1
     5    21    22    1
     6    22    23   ar
     7    23    24   ar
     8    24    25   ar
     9    25    28    1
    10    28    29   ar
    11    29    30   ar
    12    30    31   ar
    13    31    32   ar
    14    25    26   ar
    15    26    27   ar
    16     2     5    1
    17     5     6    1
    18     6     7    1
    19     7     8    1
    20     8    11    1
    21    11    12    1
    22    12    13   ar
    23    13    14   ar
    24    14    15   ar
    25    15    16   ar
    26    15    17    1
    27    17    18    1
    28    18    19    1
    29    19    20    1
    30     8     9    1
    31     9    10    1
    32    27    22   ar
    33    10     5    1
    34    32    28   ar
    35    16    12   ar
    36    20    14    1
@<TRIPOS>MOLECULE
*****
 32 36 0 0 0
SMALL
GASTEIGER

@<TRIPOS>ATOM
      1 C         142.4259  142.4396  161.8043 C.3     1  UNL1        0.1148
      2 N         142.8501  141.0081  161.6606 N.am    1  UNL1       -0.2790
      3 C         143.6468  140.3492  162.7473 C.2     1  UNL1        0.2301
      4 O         144.0710  138.9175  162.6036 O.2     1  UNL1       -0.2745
      5 C         142.4775  140.2353  160.4301 C.3     1  UNL1        0.0782
      6 C         143.3514  140.2968  159.2125 C.3     1  UNL1        0.0372
      7 C         142.9788  139.5240  157.9820 C.3     1  UNL1        0.0741
      8 N         141.7323  138.6898  157.9691 N.3     1  UNL1       -0.2671
      9 C         140.8583  138.6283  159.1868 C.3     1  UNL1        0.0741
     10 C         141.2310  139.4010  160.4172 C.3     1  UNL1        0.0372
     11 C         141.3597  137.9170  156.7387 C.3     1  UNL1        0.1255
     12 C         141.9638  136.5669  156.4894 C.ar    1  UNL1        0.1037
     13 N         142.9575  135.8693  157.3702 N.ar    1  UNL1       -0.2460
     14 C         143.2881  134.5486  156.7406 C.ar    1  UNL1        0.0612
     15 C         142.4988  134.4299  155.4706 C.ar    1  UNL1        0.0219
     16 S         141.6803  135.6773  155.3153 S.2     1  UNL1       -0.0741
     17 C         142.6273  133.2014  154.6197 C.3     1  UNL1        0.0342
     18 C         143.5452  132.0915  155.0387 C.3     1  UNL1        0.0057
     19 C         144.3345  132.2101  156.3087 C.3     1  UNL1        0.0067
     20 C         144.2060  133.4387  157.1597 C.3     1  UNL1        0.0460
     21 C         144.0194  141.1219  163.9778 C.3     1  UNL1        0.1116
     22 C         143.2172  140.9624  165.2352 C.ar    1  UNL1       -0.0130
     23 C         142.4408  142.1235  165.7818 C.ar    1  UNL1       -0.0022
     24 C         141.6386  141.9640  167.0392 C.ar    1  UNL1        0.0190
     25 C         141.6127  140.6434  167.7499 C.ar    1  UNL1        0.0862
     26 C         142.3891  139.4822  167.2033 C.ar    1  UNL1        0.0190
     27 C         143.1914  139.6417  165.9459 C.ar    1  UNL1       -0.0022
     28 N         140.8105  140.4839  169.0073 N.ar    1  UNL1       -0.1886
     29 C         139.3407  140.1947  169.0847 C.ar    1  UNL1        0.2258
     30 N         138.9590  140.1177  170.5333 N.ar    1  UNL1       -0.1045
     31 N         140.1930  140.3592  171.3512 N.ar    1  UNL1       -0.0222
     32 N         141.3372  140.5855  170.4081 N.ar    1  UNL1       -0.0385
@<TRIPOS>BOND
     1     1     2    1
     2     2     3   am
     3     3     4    2
     4     3    21    1
     5    21    22    1
     6    22    23   ar
     7    23    24   ar
     8    24    25   ar
     9    25    28    1
    10    28    29   ar
    11    29    30   ar
    12    30    31   ar
    13    31    32   ar
    14    25    26   ar
    15    26    27   ar
    16     2     5    1
    17     5     6    1
    18     6     7    1
    19     7     8    1
    20     8    11    1
    21    11    12    1
    22    12    13   ar
    23    13    14   ar
    24    14    15   ar
    25    15    16   ar
    26    15    17    1
    27    17    18    1
    28    18    19    1
    29    19    20    1
    30     8     9    1
    31     9    10    1
    32    27    22   ar
    33    10     5    1
    34    32    28   ar
    35    16    12   ar
    36    20    14    1
