@<TRIPOS>MOLECULE
*****
 28 29 0 0 0
SMALL
GASTEIGER

@<TRIPOS>ATOM
      1 C         143.3862  138.5180  165.9304 C.3     1  UNL1        0.1066
      2 O         141.1229  139.5741  166.6461 O.2     1  UNL1       -0.2747
      3 C         142.5233  139.1530  166.9802 C.2     1  UNL1        0.2289
      4 N         143.0608  139.3670  168.3642 N.am    1  UNL1       -0.2688
      5 H         143.9800  139.0907  168.5835 H       1  UNL1        0.1563
      6 C         142.1980  140.0021  169.4140 C.ar    1  UNL1        0.1446
      7 N         140.8158  139.4772  169.6670 N.ar    1  UNL1       -0.2919
      8 C         139.9528  140.1122  170.7168 C.ar    1  UNL1        0.3479
      9 O         138.5707  139.5874  170.9698 O.2     1  UNL1       -0.2447
     10 N         140.4721  141.2721  171.5137 N.ar    1  UNL1       -0.1884
     11 C         141.8544  141.7970  171.2606 C.ar    1  UNL1        0.1361
     12 C         142.7173  141.1620  170.2108 C.ar    1  UNL1        0.1890
     13 F         144.0994  141.6869  169.9579 F       1  UNL1       -0.1996
     14 H         140.4750  138.7159  169.1440 H       1  UNL1        0.1717
     15 C         143.4965  139.1431  164.5714 C.3     1  UNL1        0.0993
     16 N         143.3226  140.6244  164.4108 N.am    1  UNL1       -0.3004
     17 C         142.0725  141.1695  163.7863 C.2     1  UNL1        0.2461
     18 O         140.9962  140.2333  163.3224 O.2     1  UNL1       -0.2701
     19 H         144.0290  141.2388  164.7153 H       1  UNL1        0.1498
     20 C         141.8986  142.6507  163.6257 C.ar    1  UNL1        0.0595
     21 C         142.9931  143.5847  164.0497 C.ar    1  UNL1        0.0049
     22 C         142.8192  145.0658  163.8891 C.ar    1  UNL1        0.0065
     23 C         141.5508  145.6131  163.3046 C.ar    1  UNL1        0.0753
     24 C         140.4563  144.6791  162.8806 C.ar    1  UNL1        0.2902
     25 C         140.6302  143.1980  163.0412 C.ar    1  UNL1        0.0798
     26 N         139.1879  145.2264  162.2961 N.pl3   1  UNL1        0.0809
     27 O         137.8721  144.5874  162.6285 O.2     1  UNL1        0.0415
     28 O         139.2352  146.4125  161.3792 O.co2   1  UNL1       -0.5760
@<TRIPOS>UNITY_ATOM_ATTR
26 1
charge 1
28 1
charge -1
@<TRIPOS>BOND
     1     2     3    2
     2     3     1    1
     3     1    15    1
     4    15    16    1
     5    16    17   am
     6    17    18    2
     7    17    20    1
     8    20    21   ar
     9    21    22   ar
    10    22    23   ar
    11    23    24   ar
    12    24    26    1
    13    26    27    2
    14    26    28    1
    15    24    25   ar
    16     3     4   am
    17     4     6    1
    18     6     7   ar
    19     7     8   ar
    20     8     9    2
    21     8    10   ar
    22    10    11   ar
    23    11    12   ar
    24    12    13    1
    25    25    20   ar
    26    12     6   ar
    27    16    19    1
    28     4     5    1
    29     7    14    1
@<TRIPOS>MOLECULE
*****
 28 29 0 0 0
SMALL
GASTEIGER

@<TRIPOS>ATOM
      1 C         145.2406  142.0575  162.1594 C.3     1  UNL1        0.1066
      2 O         142.8483  141.8234  161.1734 O.2     1  UNL1       -0.2747
      3 C         143.9056  142.6584  161.8329 C.2     1  UNL1        0.2289
      4 N         143.6278  144.0944  162.1659 N.am    1  UNL1       -0.2688
      5 H         144.3217  144.6425  162.5987 H       1  UNL1        0.1563
      6 C         142.2928  144.6953  161.8394 C.ar    1  UNL1        0.1446
      7 N         141.8873  144.8889  160.4083 N.ar    1  UNL1       -0.2919
      8 C         140.5523  145.4898  160.0817 C.ar    1  UNL1        0.3479
      9 O         140.1467  145.6833  158.6506 O.2     1  UNL1       -0.2447
     10 N         139.6228  145.8972  161.1863 N.ar    1  UNL1       -0.1884
     11 C         140.0284  145.7036  162.6174 C.ar    1  UNL1        0.1361
     12 C         141.3633  145.1027  162.9439 C.ar    1  UNL1        0.1890
     13 F         141.7689  144.9092  164.3750 F       1  UNL1       -0.1996
     14 H         142.4974  144.6215  159.6833 H       1  UNL1        0.1717
     15 C         145.5674  141.6801  163.5738 C.3     1  UNL1        0.0993
     16 N         144.4636  141.4595  164.5654 N.am    1  UNL1       -0.3004
     17 C         143.9816  142.5967  165.4164 C.2     1  UNL1        0.2461
     18 O         144.6032  143.9545  165.2760 O.2     1  UNL1       -0.2701
     19 H         144.0556  140.5682  164.6576 H       1  UNL1        0.1498
     20 C         142.8778  142.3761  166.4080 C.ar    1  UNL1        0.0595
     21 C         141.4996  142.0258  165.9305 C.ar    1  UNL1        0.0049
     22 C         140.3960  141.8052  166.9220 C.ar    1  UNL1        0.0065
     23 C         140.6704  141.9349  168.3910 C.ar    1  UNL1        0.0753
     24 C         142.0485  142.2851  168.8684 C.ar    1  UNL1        0.2902
     25 C         143.1522  142.5057  167.8769 C.ar    1  UNL1        0.0798
     26 N         142.3230  142.4148  170.3374 N.pl3   1  UNL1        0.0809
     27 O         142.9980  143.6445  170.8686 O.2     1  UNL1        0.0415
     28 O         141.9225  141.3148  171.2752 O.co2   1  UNL1       -0.5760
@<TRIPOS>UNITY_ATOM_ATTR
26 1
charge 1
28 1
charge -1
@<TRIPOS>BOND
     1     2     3    2
     2     3     1    1
     3     1    15    1
     4    15    16    1
     5    16    17   am
     6    17    18    2
     7    17    20    1
     8    20    21   ar
     9    21    22   ar
    10    22    23   ar
    11    23    24   ar
    12    24    26    1
    13    26    27    2
    14    26    28    1
    15    24    25   ar
    16     3     4   am
    17     4     6    1
    18     6     7   ar
    19     7     8   ar
    20     8     9    2
    21     8    10   ar
    22    10    11   ar
    23    11    12   ar
    24    12    13    1
    25    25    20   ar
    26    12     6   ar
    27    16    19    1
    28     4     5    1
    29     7    14    1
@<TRIPOS>MOLECULE
*****
 28 29 0 0 0
SMALL
GASTEIGER

@<TRIPOS>ATOM
      1 C         138.7409  139.1479  165.9250 C.3     1  UNL1        0.1066
      2 O         139.6845  141.4742  166.5942 O.2     1  UNL1       -0.2747
      3 C         139.3292  140.0629  166.9577 C.2     1  UNL1        0.2289
      4 N         139.5623  139.5668  168.3540 N.am    1  UNL1       -0.2688
      5 H         139.3292  138.6405  168.5926 H       1  UNL1        0.1563
      6 C         140.1507  140.4818  169.3867 C.ar    1  UNL1        0.1446
      7 N         139.5329  141.8255  169.6373 N.ar    1  UNL1       -0.2919
      8 C         140.1212  142.7406  170.6700 C.ar    1  UNL1        0.3479
      9 O         139.5035  144.0843  170.9206 O.2     1  UNL1       -0.2447
     10 N         141.3273  142.3120  171.4521 N.ar    1  UNL1       -0.1884
     11 C         141.9451  140.9683  171.2014 C.ar    1  UNL1        0.1361
     12 C         141.3568  140.0532  170.1687 C.ar    1  UNL1        0.1890
     13 F         141.9745  138.7095  169.9181 F       1  UNL1       -0.1996
     14 H         138.7413  142.1068  169.1240 H       1  UNL1        0.1717
     15 C         139.2700  139.1622  164.5216 C.3     1  UNL1        0.0993
     16 N         140.4532  140.0165  164.1748 N.am    1  UNL1       -0.3004
     17 C         141.8410  139.4605  164.2960 C.2     1  UNL1        0.2461
     18 O         142.0457  138.0502  164.7640 O.2     1  UNL1       -0.2701
     19 H         140.3189  140.9422  163.8676 H       1  UNL1        0.1498
     20 C         143.0243  140.3148  163.9492 C.ar    1  UNL1        0.0595
     21 C         144.4007  139.8984  164.3755 C.ar    1  UNL1        0.0049
     22 C         145.5839  140.7527  164.0288 C.ar    1  UNL1        0.0065
     23 C         145.3905  142.0235  163.2556 C.ar    1  UNL1        0.0753
     24 C         144.0140  142.4399  162.8293 C.ar    1  UNL1        0.2902
     25 C         142.8309  141.5856  163.1761 C.ar    1  UNL1        0.0798
     26 N         143.8207  143.7107  162.0561 N.pl3   1  UNL1        0.0809
     27 O         144.1634  145.0296  162.6831 O.2     1  UNL1        0.0415
     28 O         143.2847  143.6626  160.6560 O.co2   1  UNL1       -0.5760
@<TRIPOS>UNITY_ATOM_ATTR
26 1
charge 1
28 1
charge -1
@<TRIPOS>BOND
     1     2     3    2
     2     3     1    1
     3     1    15    1
     4    15    16    1
     5    16    17   am
     6    17    18    2
     7    17    20    1
     8    20    21   ar
     9    21    22   ar
    10    22    23   ar
    11    23    24   ar
    12    24    26    1
    13    26    27    2
    14    26    28    1
    15    24    25   ar
    16     3     4   am
    17     4     6    1
    18     6     7   ar
    19     7     8   ar
    20     8     9    2
    21     8    10   ar
    22    10    11   ar
    23    11    12   ar
    24    12    13    1
    25    25    20   ar
    26    12     6   ar
    27    16    19    1
    28     4     5    1
    29     7    14    1
@<TRIPOS>MOLECULE
*****
 28 29 0 0 0
SMALL
GASTEIGER

@<TRIPOS>ATOM
      1 C         144.4752  142.8895  164.5779 C.3     1  UNL1        0.1066
      2 O         144.4644  144.4104  162.4716 O.2     1  UNL1       -0.2747
      3 C         143.7205  143.6731  163.5453 C.2     1  UNL1        0.2289
      4 N         142.2217  143.7193  163.5864 N.am    1  UNL1       -0.2688
      5 H         141.7334  143.2353  164.2911 H       1  UNL1        0.1563
      6 C         141.4669  144.5029  162.5538 C.ar    1  UNL1        0.1446
      7 N         141.9987  144.6076  161.1551 N.ar    1  UNL1       -0.2919
      8 C         141.2439  145.3912  160.1224 C.ar    1  UNL1        0.3479
      9 O         141.7757  145.4959  158.7238 O.2     1  UNL1       -0.2447
     10 N         139.9574  146.0700  160.4885 N.ar    1  UNL1       -0.1884
     11 C         139.4256  145.9653  161.8872 C.ar    1  UNL1        0.1361
     12 C         140.1804  145.1817  162.9198 C.ar    1  UNL1        0.1890
     13 F         139.6486  145.0770  164.3184 F       1  UNL1       -0.1996
     14 H         142.8431  144.1620  160.9149 H       1  UNL1        0.1717
     15 C         144.2068  141.4240  164.7514 C.3     1  UNL1        0.0993
     16 N         143.0593  140.9673  165.6028 N.am    1  UNL1       -0.3004
     17 C         141.7373  140.6472  164.9706 C.2     1  UNL1        0.2461
     18 O         141.5626  140.7838  163.4871 O.2     1  UNL1       -0.2701
     19 H         143.1739  140.8776  166.5765 H       1  UNL1        0.1498
     20 C         140.5898  140.1905  165.8220 C.ar    1  UNL1        0.0595
     21 C         139.3936  139.5468  165.1859 C.ar    1  UNL1        0.0049
     22 C         138.2462  139.0902  166.0372 C.ar    1  UNL1        0.0065
     23 C         138.2950  139.2772  167.5247 C.ar    1  UNL1        0.0753
     24 C         139.4912  139.9208  168.1609 C.ar    1  UNL1        0.2902
     25 C         140.6386  140.3775  167.3095 C.ar    1  UNL1        0.0798
     26 N         139.5400  140.1078  169.6484 N.pl3   1  UNL1        0.0809
     27 O         140.6222  139.4497  170.4519 O.2     1  UNL1        0.0415
     28 O         138.5066  140.9529  170.3323 O.co2   1  UNL1       -0.5760
@<TRIPOS>UNITY_ATOM_ATTR
26 1
charge 1
28 1
charge -1
@<TRIPOS>BOND
     1     2     3    2
     2     3     1    1
     3     1    15    1
     4    15    16    1
     5    16    17   am
     6    17    18    2
     7    17    20    1
     8    20    21   ar
     9    21    22   ar
    10    22    23   ar
    11    23    24   ar
    12    24    26    1
    13    26    27    2
    14    26    28    1
    15    24    25   ar
    16     3     4   am
    17     4     6    1
    18     6     7   ar
    19     7     8   ar
    20     8     9    2
    21     8    10   ar
    22    10    11   ar
    23    11    12   ar
    24    12    13    1
    25    25    20   ar
    26    12     6   ar
    27    16    19    1
    28     4     5    1
    29     7    14    1
@<TRIPOS>MOLECULE
*****
 28 29 0 0 0
SMALL
GASTEIGER

@<TRIPOS>ATOM
      1 C         144.2470  141.4147  163.3858 C.3     1  UNL1        0.1066
      2 O         142.1940  141.2191  161.8056 O.2     1  UNL1       -0.2747
      3 C         142.8827  141.8751  162.9655 C.2     1  UNL1        0.2289
      4 N         142.2070  142.9916  163.7051 N.am    1  UNL1       -0.2688
      5 H         142.6590  143.4222  164.4664 H       1  UNL1        0.1563
      6 C         140.8427  143.4520  163.2848 C.ar    1  UNL1        0.1446
      7 N         139.7556  142.4485  163.0379 N.ar    1  UNL1       -0.2919
      8 C         138.3912  142.9089  162.6176 C.ar    1  UNL1        0.3479
      9 O         137.3041  141.9054  162.3707 O.2     1  UNL1       -0.2447
     10 N         138.1141  144.3728  162.4443 N.ar    1  UNL1       -0.1884
     11 C         139.2013  145.3764  162.6912 C.ar    1  UNL1        0.1361
     12 C         140.5656  144.9160  163.1115 C.ar    1  UNL1        0.1890
     13 F         141.6527  145.9195  163.3585 F       1  UNL1       -0.1996
     14 H         139.9375  141.4877  163.1517 H       1  UNL1        0.1717
     15 C         144.4037  140.5364  164.5915 C.3     1  UNL1        0.0993
     16 N         143.2412  140.3129  165.5129 N.am    1  UNL1       -0.3004
     17 C         142.8581  141.3691  166.5067 C.2     1  UNL1        0.2461
     18 O         143.6373  142.6487  166.5792 O.2     1  UNL1       -0.2701
     19 H         142.7297  139.4731  165.4653 H       1  UNL1        0.1498
     20 C         141.6956  141.1457  167.4280 C.ar    1  UNL1        0.0595
     21 C         140.6931  140.0721  167.1239 C.ar    1  UNL1        0.0049
     22 C         139.5307  139.8487  168.0452 C.ar    1  UNL1        0.0065
     23 C         139.3708  140.6989  169.2706 C.ar    1  UNL1        0.0753
     24 C         140.3732  141.7724  169.5747 C.ar    1  UNL1        0.2902
     25 C         141.5356  141.9958  168.6534 C.ar    1  UNL1        0.0798
     26 N         140.2132  142.6226  170.8001 N.pl3   1  UNL1        0.0809
     27 O         139.6084  143.9908  170.6900 O.2     1  UNL1        0.0415
     28 O         140.6581  142.1046  172.1356 O.co2   1  UNL1       -0.5760
@<TRIPOS>UNITY_ATOM_ATTR
26 1
charge 1
28 1
charge -1
@<TRIPOS>BOND
     1     2     3    2
     2     3     1    1
     3     1    15    1
     4    15    16    1
     5    16    17   am
     6    17    18    2
     7    17    20    1
     8    20    21   ar
     9    21    22   ar
    10    22    23   ar
    11    23    24   ar
    12    24    26    1
    13    26    27    2
    14    26    28    1
    15    24    25   ar
    16     3     4   am
    17     4     6    1
    18     6     7   ar
    19     7     8   ar
    20     8     9    2
    21     8    10   ar
    22    10    11   ar
    23    11    12   ar
    24    12    13    1
    25    25    20   ar
    26    12     6   ar
    27    16    19    1
    28     4     5    1
    29     7    14    1
@<TRIPOS>MOLECULE
*****
 28 29 0 0 0
SMALL
GASTEIGER

@<TRIPOS>ATOM
      1 C         139.2603  137.9142  162.8793 C.3     1  UNL1        0.1066
      2 O         140.6387  139.7583  161.6755 O.2     1  UNL1       -0.2747
      3 C         139.4267  139.3435  162.4558 C.2     1  UNL1        0.2289
      4 N         138.3811  140.3581  162.8128 N.am    1  UNL1       -0.2688
      5 H         137.5856  140.0859  163.3250 H       1  UNL1        0.1563
      6 C         138.5475  141.7874  162.3893 C.ar    1  UNL1        0.1446
      7 N         139.1847  142.1094  161.0701 N.ar    1  UNL1       -0.2919
      8 C         139.3512  143.5388  160.6466 C.ar    1  UNL1        0.3479
      9 O         139.9884  143.8608  159.3274 O.2     1  UNL1       -0.2447
     10 N         138.8804  144.6461  161.5423 N.ar    1  UNL1       -0.1884
     11 C         138.2431  144.3240  162.8615 C.ar    1  UNL1        0.1361
     12 C         138.0767  142.8947  163.2850 C.ar    1  UNL1        0.1890
     13 F         137.4395  142.5727  164.6041 F       1  UNL1       -0.1996
     14 H         139.4937  141.3826  160.4823 H       1  UNL1        0.1717
     15 C         139.6328  137.4961  164.2708 C.3     1  UNL1        0.0993
     16 N         140.1234  138.5167  165.2547 N.am    1  UNL1       -0.3004
     17 C         139.1425  139.3768  165.9950 C.2     1  UNL1        0.2461
     18 O         137.6711  139.2163  165.7516 O.2     1  UNL1       -0.2701
     19 H         141.0891  138.6220  165.4144 H       1  UNL1        0.1498
     20 C         139.6331  140.3973  166.9788 C.ar    1  UNL1        0.0595
     21 C         140.1193  141.7316  166.4958 C.ar    1  UNL1        0.0049
     22 C         140.6098  142.7521  167.4797 C.ar    1  UNL1        0.0065
     23 C         140.6141  142.4383  168.9465 C.ar    1  UNL1        0.0753
     24 C         140.1278  141.1041  169.4295 C.ar    1  UNL1        0.2902
     25 C         139.6373  140.0836  168.4457 C.ar    1  UNL1        0.0798
     26 N         140.1321  140.7903  170.8963 N.pl3   1  UNL1        0.0809
     27 O         139.5810  139.4838  171.3854 O.2     1  UNL1        0.0415
     28 O         140.6875  141.7831  171.8740 O.co2   1  UNL1       -0.5760
@<TRIPOS>UNITY_ATOM_ATTR
26 1
charge 1
28 1
charge -1
@<TRIPOS>BOND
     1     2     3    2
     2     3     1    1
     3     1    15    1
     4    15    16    1
     5    16    17   am
     6    17    18    2
     7    17    20    1
     8    20    21   ar
     9    21    22   ar
    10    22    23   ar
    11    23    24   ar
    12    24    26    1
    13    26    27    2
    14    26    28    1
    15    24    25   ar
    16     3     4   am
    17     4     6    1
    18     6     7   ar
    19     7     8   ar
    20     8     9    2
    21     8    10   ar
    22    10    11   ar
    23    11    12   ar
    24    12    13    1
    25    25    20   ar
    26    12     6   ar
    27    16    19    1
    28     4     5    1
    29     7    14    1
@<TRIPOS>MOLECULE
*****
 28 29 0 0 0
SMALL
GASTEIGER

@<TRIPOS>ATOM
      1 C         137.9518  144.1455  164.2407 C.3     1  UNL1        0.1066
      2 O         138.1399  143.6515  161.6970 O.2     1  UNL1       -0.2747
      3 C         138.1719  143.1745  163.1188 C.2     1  UNL1        0.2289
      4 N         138.4242  141.7266  163.4186 N.am    1  UNL1       -0.2688
      5 H         138.4452  141.4135  164.3518 H       1  UNL1        0.1563
      6 C         138.6443  140.7556  162.2967 C.ar    1  UNL1        0.1446
      7 N         137.9056  140.9251  161.0023 N.ar    1  UNL1       -0.2919
      8 C         138.1257  139.9542  159.8803 C.ar    1  UNL1        0.3479
      9 O         137.3870  140.1237  158.5860 O.2     1  UNL1       -0.2447
     10 N         139.0847  138.8137  160.0528 N.ar    1  UNL1       -0.1884
     11 C         139.8235  138.6442  161.3472 C.ar    1  UNL1        0.1361
     12 C         139.6033  139.6151  162.4692 C.ar    1  UNL1        0.1890
     13 F         140.3421  139.4456  163.7635 F       1  UNL1       -0.1996
     14 H         137.2762  141.6737  160.8892 H       1  UNL1        0.1717
     15 C         139.0878  144.5122  165.1489 C.3     1  UNL1        0.0993
     16 N         139.5441  143.5499  166.2054 N.am    1  UNL1       -0.3004
     17 C         140.6052  142.5378  165.8901 C.2     1  UNL1        0.2461
     18 O         141.2101  142.4878  164.5184 O.2     1  UNL1       -0.2701
     19 H         139.1471  143.5827  167.1057 H       1  UNL1        0.1498
     20 C         141.0615  141.5755  166.9465 C.ar    1  UNL1        0.0595
     21 C         142.2560  140.7023  166.7002 C.ar    1  UNL1        0.0049
     22 C         142.7122  139.7402  167.7566 C.ar    1  UNL1        0.0065
     23 C         141.9740  139.6512  169.0593 C.ar    1  UNL1        0.0753
     24 C         140.7795  140.5244  169.3057 C.ar    1  UNL1        0.2902
     25 C         140.3233  141.4866  168.2492 C.ar    1  UNL1        0.0798
     26 N         140.0413  140.4355  170.6084 N.pl3   1  UNL1        0.0809
     27 O         140.6401  141.0238  171.8514 O.2     1  UNL1        0.0415
     28 O         138.7043  139.7582  170.6681 O.co2   1  UNL1       -0.5760
@<TRIPOS>UNITY_ATOM_ATTR
26 1
charge 1
28 1
charge -1
@<TRIPOS>BOND
     1     2     3    2
     2     3     1    1
     3     1    15    1
     4    15    16    1
     5    16    17   am
     6    17    18    2
     7    17    20    1
     8    20    21   ar
     9    21    22   ar
    10    22    23   ar
    11    23    24   ar
    12    24    26    1
    13    26    27    2
    14    26    28    1
    15    24    25   ar
    16     3     4   am
    17     4     6    1
    18     6     7   ar
    19     7     8   ar
    20     8     9    2
    21     8    10   ar
    22    10    11   ar
    23    11    12   ar
    24    12    13    1
    25    25    20   ar
    26    12     6   ar
    27    16    19    1
    28     4     5    1
    29     7    14    1
@<TRIPOS>MOLECULE
*****
 28 29 0 0 0
SMALL
GASTEIGER

@<TRIPOS>ATOM
      1 C         138.7119  138.2752  164.2100 C.3     1  UNL1        0.1066
      2 O         137.5631  138.8202  166.4756 O.2     1  UNL1       -0.2747
      3 C         138.7308  138.9598  165.5445 C.2     1  UNL1        0.2289
      4 N         139.9174  139.7840  165.9479 N.am    1  UNL1       -0.2688
      5 H         140.6838  139.8756  165.3368 H       1  UNL1        0.1563
      6 C         139.9363  140.4686  167.2824 C.ar    1  UNL1        0.1446
      7 N         139.5254  139.7196  168.5154 N.ar    1  UNL1       -0.2919
      8 C         139.5442  140.4042  169.8500 C.ar    1  UNL1        0.3479
      9 O         139.1333  139.6553  171.0829 O.2     1  UNL1       -0.2447
     10 N         139.9740  141.8377  169.9515 N.ar    1  UNL1       -0.1884
     11 C         140.3850  142.5867  168.7185 C.ar    1  UNL1        0.1361
     12 C         140.3661  141.9021  167.3840 C.ar    1  UNL1        0.1890
     13 F         140.7770  142.6510  166.1510 F       1  UNL1       -0.1996
     14 H         139.2433  138.7788  168.4487 H       1  UNL1        0.1717
     15 C         138.5776  139.0841  162.9540 C.3     1  UNL1        0.0993
     16 N         139.2895  140.3985  162.8287 N.am    1  UNL1       -0.3004
     17 C         138.5104  141.6798  162.8649 C.2     1  UNL1        0.2461
     18 O         137.0195  141.6467  163.0264 O.2     1  UNL1       -0.2701
     19 H         140.2680  140.4202  162.7227 H       1  UNL1        0.1498
     20 C         139.2223  142.9942  162.7396 C.ar    1  UNL1        0.0595
     21 C         138.4348  144.2659  162.6275 C.ar    1  UNL1        0.0049
     22 C         139.1466  145.5802  162.5022 C.ar    1  UNL1        0.0065
     23 C         140.6460  145.6229  162.4891 C.ar    1  UNL1        0.0753
     24 C         141.4335  144.3512  162.6012 C.ar    1  UNL1        0.2902
     25 C         140.7216  143.0369  162.7265 C.ar    1  UNL1        0.0798
     26 N         142.9328  144.3938  162.5881 N.pl3   1  UNL1        0.0809
     27 O         143.6862  143.9137  161.3833 O.2     1  UNL1        0.0415
     28 O         143.6787  144.9167  163.7798 O.co2   1  UNL1       -0.5760
@<TRIPOS>UNITY_ATOM_ATTR
26 1
charge 1
28 1
charge -1
@<TRIPOS>BOND
     1     2     3    2
     2     3     1    1
     3     1    15    1
     4    15    16    1
     5    16    17   am
     6    17    18    2
     7    17    20    1
     8    20    21   ar
     9    21    22   ar
    10    22    23   ar
    11    23    24   ar
    12    24    26    1
    13    26    27    2
    14    26    28    1
    15    24    25   ar
    16     3     4   am
    17     4     6    1
    18     6     7   ar
    19     7     8   ar
    20     8     9    2
    21     8    10   ar
    22    10    11   ar
    23    11    12   ar
    24    12    13    1
    25    25    20   ar
    26    12     6   ar
    27    16    19    1
    28     4     5    1
    29     7    14    1
@<TRIPOS>MOLECULE
*****
 28 29 0 0 0
SMALL
GASTEIGER

@<TRIPOS>ATOM
      1 C         143.3582  138.5906  165.8753 C.3     1  UNL1        0.1066
      2 O         141.0850  139.6252  166.5907 O.2     1  UNL1       -0.2747
      3 C         142.4891  139.2170  166.9251 C.2     1  UNL1        0.2289
      4 N         143.0241  139.4351  168.3095 N.am    1  UNL1       -0.2688
      5 H         143.9456  139.1671  168.5290 H       1  UNL1        0.1563
      6 C         142.1549  140.0614  169.3593 C.ar    1  UNL1        0.1446
      7 N         140.7489  139.5773  169.5556 N.ar    1  UNL1       -0.2919
      8 C         139.8796  140.2037  170.6055 C.ar    1  UNL1        0.3479
      9 O         138.4736  139.7196  170.8018 O.2     1  UNL1       -0.2447
     10 N         140.4166  141.3141  171.4591 N.ar    1  UNL1       -0.1884
     11 C         141.8228  141.7982  171.2628 C.ar    1  UNL1        0.1361
     12 C         142.6919  141.1718  170.2129 C.ar    1  UNL1        0.1890
     13 F         144.0980  141.6559  170.0167 F       1  UNL1       -0.1996
     14 H         140.3965  138.8485  168.9953 H       1  UNL1        0.1717
     15 C         143.5874  139.2970  164.5720 C.3     1  UNL1        0.0993
     16 N         142.4183  139.7252  163.7353 N.am    1  UNL1       -0.3004
     17 C         142.0097  138.9098  162.5444 C.2     1  UNL1        0.2461
     18 O         142.7701  137.6664  162.1902 O.2     1  UNL1       -0.2701
     19 H         141.9192  140.5413  163.9678 H       1  UNL1        0.1498
     20 C         140.8406  139.3380  161.7077 C.ar    1  UNL1        0.0595
     21 C         140.5769  138.6711  160.3903 C.ar    1  UNL1        0.0049
     22 C         139.4079  139.0993  159.5536 C.ar    1  UNL1        0.0065
     23 C         138.5026  140.1943  160.0344 C.ar    1  UNL1        0.0753
     24 C         138.7662  140.8612  161.3519 C.ar    1  UNL1        0.2902
     25 C         139.9353  140.4331  162.1885 C.ar    1  UNL1        0.0798
     26 N         137.8609  141.9563  161.8326 N.pl3   1  UNL1        0.0809
     27 O         136.9155  141.7030  162.9693 O.2     1  UNL1        0.0415
     28 O         137.9009  143.3047  161.1768 O.co2   1  UNL1       -0.5760
@<TRIPOS>UNITY_ATOM_ATTR
26 1
charge 1
28 1
charge -1
@<TRIPOS>BOND
     1     2     3    2
     2     3     1    1
     3     1    15    1
     4    15    16    1
     5    16    17   am
     6    17    18    2
     7    17    20    1
     8    20    21   ar
     9    21    22   ar
    10    22    23   ar
    11    23    24   ar
    12    24    26    1
    13    26    27    2
    14    26    28    1
    15    24    25   ar
    16     3     4   am
    17     4     6    1
    18     6     7   ar
    19     7     8   ar
    20     8     9    2
    21     8    10   ar
    22    10    11   ar
    23    11    12   ar
    24    12    13    1
    25    25    20   ar
    26    12     6   ar
    27    16    19    1
    28     4     5    1
    29     7    14    1
