@<TRIPOS>MOLECULE
*****
 20 22 0 0 0
SMALL
GASTEIGER

@<TRIPOS>ATOM
      1 C         138.1454  139.4955  162.4510 C.ar    1  UNL1        0.1505
      2 N         138.0224  140.6836  161.5437 N.ar    1  UNL1       -0.2284
      3 C         138.0302  141.9192  162.3942 C.ar    1  UNL1        0.0984
      4 C         137.9374  143.3759  162.0489 C.ar    1  UNL1        0.0206
      5 C         137.9724  144.4081  163.1367 C.ar    1  UNL1        0.0016
      6 C         138.1003  143.9837  164.5696 C.ar    1  UNL1        0.0016
      7 C         138.1931  142.5269  164.9149 C.ar    1  UNL1        0.0188
      8 C         138.1580  141.4947  163.8272 C.ar    1  UNL1        0.0789
      9 N         138.2292  139.9968  163.8623 N.ar    1  UNL1       -0.3087
     10 O         139.4432  137.2636  162.1609 O.3     1  UNL1       -0.3748
     11 C         138.1787  138.0584  162.0223 C.3     1  UNL1        0.2014
     12 H         139.2941  136.3604  161.8402 H       1  UNL1        0.2110
     13 C         138.3611  139.1490  165.0927 C.3     1  UNL1        0.1340
     14 C         139.4731  139.4071  166.0657 C.ar    1  UNL1        0.0005
     15 C         140.9001  139.2344  165.6369 C.ar    1  UNL1       -0.0015
     16 C         142.0122  139.4924  166.6100 C.ar    1  UNL1        0.0111
     17 C         141.6971  139.9233  168.0118 C.ar    1  UNL1        0.0577
     18 CL        142.8092  140.1814  168.9848 Cl      1  UNL1       -0.0822
     19 C         140.2702  140.0960  168.4406 C.ar    1  UNL1        0.0111
     20 C         139.1581  139.8379  167.4676 C.ar    1  UNL1       -0.0015
@<TRIPOS>BOND
     1    10    11    1
     2    11     1    1
     3     1     2   ar
     4     2     3   ar
     5     3     4   ar
     6     4     5   ar
     7     5     6   ar
     8     6     7   ar
     9     7     8   ar
    10     8     9   ar
    11     9    13    1
    12    13    14    1
    13    14    15   ar
    14    15    16   ar
    15    16    17   ar
    16    17    18    1
    17    17    19   ar
    18    19    20   ar
    19     9     1   ar
    20    20    14   ar
    21     8     3   ar
    22    10    12    1
@<TRIPOS>MOLECULE
*****
 20 22 0 0 0
SMALL
GASTEIGER

@<TRIPOS>ATOM
      1 C         141.2209  144.4705  163.0473 C.ar    1  UNL1        0.1505
      2 N         142.3830  144.3069  162.1132 N.ar    1  UNL1       -0.2284
      3 C         143.3360  143.3243  162.7265 C.ar    1  UNL1        0.0984
      4 C         144.6517  142.7762  162.2589 C.ar    1  UNL1        0.0206
      5 C         145.3941  141.7844  163.1045 C.ar    1  UNL1        0.0016
      6 C         144.8209  141.3407  164.4177 C.ar    1  UNL1        0.0016
      7 C         143.5053  141.8887  164.8853 C.ar    1  UNL1        0.0188
      8 C         142.7629  142.8805  164.0397 C.ar    1  UNL1        0.0789
      9 N         141.4556  143.5889  164.2380 N.ar    1  UNL1       -0.3087
     10 O         140.2097  146.7045  162.1890 O.3     1  UNL1       -0.3748
     11 C         140.0326  145.3596  162.8291 C.3     1  UNL1        0.2014
     12 H         139.3489  147.1469  162.1228 H       1  UNL1        0.2110
     13 C         140.5433  143.4416  165.4195 C.3     1  UNL1        0.1340
     14 C         139.8768  142.1260  165.6931 C.ar    1  UNL1        0.0005
     15 C         140.2315  141.3474  166.9252 C.ar    1  UNL1       -0.0015
     16 C         139.5651  140.0318  167.1989 C.ar    1  UNL1        0.0111
     17 C         138.5438  139.4947  166.2403 C.ar    1  UNL1        0.0577
     18 CL        137.8774  138.1791  166.5140 Cl      1  UNL1       -0.0822
     19 C         138.1892  140.2733  165.0083 C.ar    1  UNL1        0.0111
     20 C         138.8556  141.5889  164.7346 C.ar    1  UNL1       -0.0015
@<TRIPOS>BOND
     1    10    11    1
     2    11     1    1
     3     1     2   ar
     4     2     3   ar
     5     3     4   ar
     6     4     5   ar
     7     5     6   ar
     8     6     7   ar
     9     7     8   ar
    10     8     9   ar
    11     9    13    1
    12    13    14    1
    13    14    15   ar
    14    15    16   ar
    15    16    17   ar
    16    17    18    1
    17    17    19   ar
    18    19    20   ar
    19     9     1   ar
    20    20    14   ar
    21     8     3   ar
    22    10    12    1
@<TRIPOS>MOLECULE
*****
 20 22 0 0 0
SMALL
GASTEIGER

@<TRIPOS>ATOM
      1 C         138.5688  139.3518  167.4825 C.ar    1  UNL1        0.1505
      2 N         138.6137  139.6051  168.9603 N.ar    1  UNL1       -0.2284
      3 C         139.6251  140.6831  169.2154 C.ar    1  UNL1        0.0984
      4 C         140.0927  141.3420  170.4791 C.ar    1  UNL1        0.0206
      5 C         141.1404  142.4139  170.4227 C.ar    1  UNL1        0.0016
      6 C         141.7206  142.8269  169.1026 C.ar    1  UNL1        0.0016
      7 C         141.2530  142.1680  167.8388 C.ar    1  UNL1        0.0188
      8 C         140.2052  141.0961  167.8952 C.ar    1  UNL1        0.0789
      9 N         139.5524  140.2734  166.8243 N.ar    1  UNL1       -0.3087
     10 O         136.7254  137.5234  167.5757 O.3     1  UNL1       -0.3748
     11 C         137.6939  138.3526  166.7854 C.3     1  UNL1        0.2014
     12 H         136.2416  136.9330  166.9771 H       1  UNL1        0.2110
     13 C         139.8338  140.3574  165.3533 C.3     1  UNL1        0.1340
     14 C         139.6505  141.6572  164.6276 C.ar    1  UNL1        0.0005
     15 C         140.7691  142.2191  163.8011 C.ar    1  UNL1       -0.0015
     16 C         140.5859  143.5190  163.0754 C.ar    1  UNL1        0.0111
     17 C         139.2838  144.2570  163.1761 C.ar    1  UNL1        0.0577
     18 CL        139.1006  145.5569  162.4504 Cl      1  UNL1       -0.0822
     19 C         138.1652  143.6952  164.0026 C.ar    1  UNL1        0.0111
     20 C         138.3485  142.3953  164.7283 C.ar    1  UNL1       -0.0015
@<TRIPOS>BOND
     1    10    11    1
     2    11     1    1
     3     1     2   ar
     4     2     3   ar
     5     3     4   ar
     6     4     5   ar
     7     5     6   ar
     8     6     7   ar
     9     7     8   ar
    10     8     9   ar
    11     9    13    1
    12    13    14    1
    13    14    15   ar
    14    15    16   ar
    15    16    17   ar
    16    17    18    1
    17    17    19   ar
    18    19    20   ar
    19     9     1   ar
    20    20    14   ar
    21     8     3   ar
    22    10    12    1
@<TRIPOS>MOLECULE
*****
 20 22 0 0 0
SMALL
GASTEIGER

@<TRIPOS>ATOM
      1 C         142.6435  144.0969  163.6908 C.ar    1  UNL1        0.1505
      2 N         141.5289  145.0405  163.3485 N.ar    1  UNL1       -0.2284
      3 C         140.2325  144.3752  163.7045 C.ar    1  UNL1        0.0984
      4 C         138.8071  144.8280  163.5892 C.ar    1  UNL1        0.0206
      5 C         137.6952  143.9260  164.0364 C.ar    1  UNL1        0.0016
      6 C         138.0086  142.5712  164.5988 C.ar    1  UNL1        0.0016
      7 C         139.4340  142.1184  164.7141 C.ar    1  UNL1        0.0188
      8 C         140.5459  143.0204  164.2669 C.ar    1  UNL1        0.0789
      9 N         142.0360  142.8484  164.2585 N.ar    1  UNL1       -0.3087
     10 O         144.8164  143.8065  162.2966 O.3     1  UNL1       -0.3748
     11 C         144.1084  144.3563  163.4992 C.3     1  UNL1        0.2014
     12 H         145.7511  144.0641  162.3258 H       1  UNL1        0.2110
     13 C         142.7867  141.6401  164.7342 C.3     1  UNL1        0.1340
     14 C         142.8098  141.2982  166.1944 C.ar    1  UNL1        0.0005
     15 C         143.0620  142.3710  167.2121 C.ar    1  UNL1       -0.0015
     16 C         143.0850  142.0292  168.6724 C.ar    1  UNL1        0.0111
     17 C         142.8559  140.6144  169.1151 C.ar    1  UNL1        0.0577
     18 CL        142.8789  140.2725  170.5755 Cl      1  UNL1       -0.0822
     19 C         142.6037  139.5416  168.0976 C.ar    1  UNL1        0.0111
     20 C         142.5807  139.8835  166.6372 C.ar    1  UNL1       -0.0015
@<TRIPOS>BOND
     1    10    11    1
     2    11     1    1
     3     1     2   ar
     4     2     3   ar
     5     3     4   ar
     6     4     5   ar
     7     5     6   ar
     8     6     7   ar
     9     7     8   ar
    10     8     9   ar
    11     9    13    1
    12    13    14    1
    13    14    15   ar
    14    15    16   ar
    15    16    17   ar
    16    17    18    1
    17    17    19   ar
    18    19    20   ar
    19     9     1   ar
    20    20    14   ar
    21     8     3   ar
    22    10    12    1
@<TRIPOS>MOLECULE
*****
 20 22 0 0 0
SMALL
GASTEIGER

@<TRIPOS>ATOM
      1 C         138.6042  138.6714  165.9775 C.ar    1  UNL1        0.1505
      2 N         138.8573  137.5416  165.0239 N.ar    1  UNL1       -0.2284
      3 C         139.8590  138.0072  164.0090 C.ar    1  UNL1        0.0984
      4 C         140.4851  137.3234  162.8299 C.ar    1  UNL1        0.0206
      5 C         141.4773  138.0573  161.9772 C.ar    1  UNL1        0.0016
      6 C         141.8433  139.4748  162.3037 C.ar    1  UNL1        0.0016
      7 C         141.2171  140.1585  163.4829 C.ar    1  UNL1        0.0188
      8 C         140.2250  139.4247  164.3355 C.ar    1  UNL1        0.0789
      9 N         139.4495  139.8352  165.5521 N.ar    1  UNL1       -0.3087
     10 O         136.8250  137.4298  167.4068 O.3     1  UNL1       -0.3748
     11 C         137.6698  138.6424  167.1506 C.3     1  UNL1        0.2014
     12 H         136.2825  137.5749  168.1977 H       1  UNL1        0.2110
     13 C         139.5088  141.1744  166.2251 C.3     1  UNL1        0.1340
     14 C         140.6540  141.5064  167.1351 C.ar    1  UNL1        0.0005
     15 C         141.9767  141.9155  166.5577 C.ar    1  UNL1       -0.0015
     16 C         143.1220  142.2475  167.4676 C.ar    1  UNL1        0.0111
     17 C         142.9446  142.1705  168.9551 C.ar    1  UNL1        0.0577
     18 CL        144.0899  142.5025  169.8651 Cl      1  UNL1       -0.0822
     19 C         141.6221  141.7615  169.5326 C.ar    1  UNL1        0.0111
     20 C         140.4768  141.4295  168.6226 C.ar    1  UNL1       -0.0015
@<TRIPOS>BOND
     1    10    11    1
     2    11     1    1
     3     1     2   ar
     4     2     3   ar
     5     3     4   ar
     6     4     5   ar
     7     5     6   ar
     8     6     7   ar
     9     7     8   ar
    10     8     9   ar
    11     9    13    1
    12    13    14    1
    13    14    15   ar
    14    15    16   ar
    15    16    17   ar
    16    17    18    1
    17    17    19   ar
    18    19    20   ar
    19     9     1   ar
    20    20    14   ar
    21     8     3   ar
    22    10    12    1
@<TRIPOS>MOLECULE
*****
 20 22 0 0 0
SMALL
GASTEIGER

@<TRIPOS>ATOM
      1 C         139.1848  141.7917  162.9987 C.ar    1  UNL1        0.1505
      2 N         139.3953  143.1964  162.5165 N.ar    1  UNL1       -0.2284
      3 C         140.7151  143.6750  163.0447 C.ar    1  UNL1        0.0984
      4 C         141.4440  144.9773  162.8937 C.ar    1  UNL1        0.0206
      5 C         142.7782  145.1706  163.5514 C.ar    1  UNL1        0.0016
      6 C         143.3834  144.0617  164.3601 C.ar    1  UNL1        0.0016
      7 C         142.6545  142.7594  164.5111 C.ar    1  UNL1        0.0188
      8 C         141.3204  142.5661  163.8533 C.ar    1  UNL1        0.0789
      9 N         140.3746  141.4022  163.8250 N.ar    1  UNL1       -0.3087
     10 O         136.6287  141.3551  163.1583 O.3     1  UNL1       -0.3748
     11 C         137.9937  140.9283  162.7062 C.3     1  UNL1        0.2014
     12 H         135.9764  140.6889  162.8906 H       1  UNL1        0.2110
     13 C         140.5822  140.0807  164.5037 C.3     1  UNL1        0.1340
     14 C         140.6744  140.0119  165.9992 C.ar    1  UNL1        0.0005
     15 C         139.4345  140.1394  166.8338 C.ar    1  UNL1       -0.0015
     16 C         139.5267  140.0706  168.3294 C.ar    1  UNL1        0.0111
     17 C         140.8589  139.8744  168.9904 C.ar    1  UNL1        0.0577
     18 CL        140.9510  139.8056  170.4860 Cl      1  UNL1       -0.0822
     19 C         142.0987  139.7470  168.1558 C.ar    1  UNL1        0.0111
     20 C         142.0065  139.8157  166.6603 C.ar    1  UNL1       -0.0015
@<TRIPOS>BOND
     1    10    11    1
     2    11     1    1
     3     1     2   ar
     4     2     3   ar
     5     3     4   ar
     6     4     5   ar
     7     5     6   ar
     8     6     7   ar
     9     7     8   ar
    10     8     9   ar
    11     9    13    1
    12    13    14    1
    13    14    15   ar
    14    15    16   ar
    15    16    17   ar
    16    17    18    1
    17    17    19   ar
    18    19    20   ar
    19     9     1   ar
    20    20    14   ar
    21     8     3   ar
    22    10    12    1
@<TRIPOS>MOLECULE
*****
 20 22 0 0 0
SMALL
GASTEIGER

@<TRIPOS>ATOM
      1 C         141.4573  143.9902  163.4723 C.ar    1  UNL1        0.1505
      2 N         142.8862  144.1587  163.0482 N.ar    1  UNL1       -0.2284
      3 C         143.6307  142.9110  163.4211 C.ar    1  UNL1        0.0984
      4 C         145.0656  142.5091  163.2492 C.ar    1  UNL1        0.0206
      5 C         145.5316  141.1676  163.7319 C.ar    1  UNL1        0.0016
      6 C         144.5628  140.2280  164.3865 C.ar    1  UNL1        0.0016
      7 C         143.1280  140.6298  164.5584 C.ar    1  UNL1        0.0188
      8 C         142.6619  141.9714  164.0757 C.ar    1  UNL1        0.0789
      9 N         141.3187  142.6384  164.1073 N.ar    1  UNL1       -0.3087
     10 O         140.6439  146.3028  162.6121 O.3     1  UNL1       -0.3748
     11 C         140.3598  144.9968  163.2929 C.3     1  UNL1        0.2014
     12 H         139.8324  146.8333  162.5787 H       1  UNL1        0.2110
     13 C         140.0582  142.0557  164.6745 C.3     1  UNL1        0.1340
     14 C         140.0062  141.6385  166.1143 C.ar    1  UNL1        0.0005
     15 C         140.5056  142.5659  167.1824 C.ar    1  UNL1       -0.0015
     16 C         140.4537  142.1487  168.6222 C.ar    1  UNL1        0.0111
     17 C         139.9024  140.8041  168.9941 C.ar    1  UNL1        0.0577
     18 CL        139.8505  140.3870  170.4339 Cl      1  UNL1       -0.0822
     19 C         139.4031  139.8768  167.9260 C.ar    1  UNL1        0.0111
     20 C         139.4550  140.2940  166.4862 C.ar    1  UNL1       -0.0015
@<TRIPOS>BOND
     1    10    11    1
     2    11     1    1
     3     1     2   ar
     4     2     3   ar
     5     3     4   ar
     6     4     5   ar
     7     5     6   ar
     8     6     7   ar
     9     7     8   ar
    10     8     9   ar
    11     9    13    1
    12    13    14    1
    13    14    15   ar
    14    15    16   ar
    15    16    17   ar
    16    17    18    1
    17    17    19   ar
    18    19    20   ar
    19     9     1   ar
    20    20    14   ar
    21     8     3   ar
    22    10    12    1
@<TRIPOS>MOLECULE
*****
 20 22 0 0 0
SMALL
GASTEIGER

@<TRIPOS>ATOM
      1 C         143.9903  139.3978  162.1007 C.ar    1  UNL1        0.1505
      2 N         144.3014  140.6426  161.3237 N.ar    1  UNL1       -0.2284
      3 C         144.1950  141.8111  162.2581 C.ar    1  UNL1        0.0984
      4 C         144.3927  143.2835  162.0506 C.ar    1  UNL1        0.0206
      5 C         144.2134  144.2333  163.1976 C.ar    1  UNL1        0.0016
      6 C         143.8364  143.7107  164.5522 C.ar    1  UNL1        0.0016
      7 C         143.6388  142.2384  164.7597 C.ar    1  UNL1        0.0188
      8 C         143.8181  141.2886  163.6127 C.ar    1  UNL1        0.0789
      9 N         143.6916  139.7971  163.5154 N.ar    1  UNL1       -0.3087
     10 O         142.6806  137.2668  161.3983 O.3     1  UNL1       -0.3748
     11 C         143.9797  137.9994  161.5583 C.3     1  UNL1        0.2014
     12 H         142.8504  136.3823  161.0383 H       1  UNL1        0.2110
     13 C         143.3298  138.8680  164.6361 C.3     1  UNL1        0.1340
     14 C         141.9196  138.8197  165.1448 C.ar    1  UNL1        0.0005
     15 C         140.9297  137.8797  164.5229 C.ar    1  UNL1       -0.0015
     16 C         139.5194  137.8314  165.0315 C.ar    1  UNL1        0.0111
     17 C         139.0990  138.7231  166.1621 C.ar    1  UNL1        0.0577
     18 CL        137.6887  138.6747  166.6708 Cl      1  UNL1       -0.0822
     19 C         140.0888  139.6630  166.7839 C.ar    1  UNL1        0.0111
     20 C         141.4991  139.7114  166.2753 C.ar    1  UNL1       -0.0015
@<TRIPOS>BOND
     1    10    11    1
     2    11     1    1
     3     1     2   ar
     4     2     3   ar
     5     3     4   ar
     6     4     5   ar
     7     5     6   ar
     8     6     7   ar
     9     7     8   ar
    10     8     9   ar
    11     9    13    1
    12    13    14    1
    13    14    15   ar
    14    15    16   ar
    15    16    17   ar
    16    17    18    1
    17    17    19   ar
    18    19    20   ar
    19     9     1   ar
    20    20    14   ar
    21     8     3   ar
    22    10    12    1
@<TRIPOS>MOLECULE
*****
 20 22 0 0 0
SMALL
GASTEIGER

@<TRIPOS>ATOM
      1 C         139.1820  139.5890  167.4739 C.ar    1  UNL1        0.1505
      2 N         139.0177  139.7099  168.9600 N.ar    1  UNL1       -0.2284
      3 C         140.2916  140.2664  169.5235 C.ar    1  UNL1        0.0984
      4 C         140.7080  140.5989  170.9256 C.ar    1  UNL1        0.0206
      5 C         142.0760  141.1544  171.1899 C.ar    1  UNL1        0.0016
      6 C         143.0276  141.3775  170.0521 C.ar    1  UNL1        0.0016
      7 C         142.6112  141.0450  168.6499 C.ar    1  UNL1        0.0188
      8 C         141.2432  140.4895  168.3856 C.ar    1  UNL1        0.0789
      9 N         140.5574  140.0708  167.1190 N.ar    1  UNL1       -0.3087
     10 O         137.1402  138.0654  166.9643 O.3     1  UNL1       -0.3748
     11 C         138.1517  139.0763  166.5118 C.3     1  UNL1        0.2014
     12 H         136.5529  137.8424  166.2252 H       1  UNL1        0.2110
     13 C         141.1441  140.1245  165.7395 C.3     1  UNL1        0.1340
     14 C         141.7807  141.3890  165.2439 C.ar    1  UNL1        0.0005
     15 C         143.2648  141.4493  165.0339 C.ar    1  UNL1       -0.0015
     16 C         143.9014  142.7138  164.5383 C.ar    1  UNL1        0.0111
     17 C         143.0540  143.9181  164.2527 C.ar    1  UNL1        0.0577
     18 CL        143.6907  145.1826  163.7571 Cl      1  UNL1       -0.0822
     19 C         141.5701  143.8579  164.4627 C.ar    1  UNL1        0.0111
     20 C         140.9334  142.5933  164.9583 C.ar    1  UNL1       -0.0015
@<TRIPOS>BOND
     1    10    11    1
     2    11     1    1
     3     1     2   ar
     4     2     3   ar
     5     3     4   ar
     6     4     5   ar
     7     5     6   ar
     8     6     7   ar
     9     7     8   ar
    10     8     9   ar
    11     9    13    1
    12    13    14    1
    13    14    15   ar
    14    15    16   ar
    15    16    17   ar
    16    17    18    1
    17    17    19   ar
    18    19    20   ar
    19     9     1   ar
    20    20    14   ar
    21     8     3   ar
    22    10    12    1
