@<TRIPOS>MOLECULE
*****
 34 37 0 0 0
SMALL
GASTEIGER

@<TRIPOS>ATOM
      1 C         142.5859  141.1793  167.0962 C.3     1  UNL1        0.0997
      2 C         142.3177  141.8919  165.8038 C.3     1  UNL1        0.0104
      3 C         140.9100  142.0409  165.3076 C.3     1  UNL1        0.0009
      4 C         140.6419  142.7535  164.0151 C.3     1  UNL1        0.0044
      5 C         141.7814  143.3170  163.2189 C.3     1  UNL1        0.0239
      6 C         143.1890  143.1680  163.7151 C.3     1  UNL1        0.0044
      7 C         143.4572  142.4554  165.0075 C.3     1  UNL1        0.0009
      8 C         141.5133  144.0296  161.9265 C.ar    1  UNL1       -0.0032
      9 C         140.3913  145.0209  161.8353 C.ar    1  UNL1        0.0004
     10 C         140.1232  145.7335  160.5428 C.ar    1  UNL1        0.0386
     11 C         140.9772  145.4547  159.3416 C.ar    1  UNL1        0.1656
     12 N         140.9521  145.9992  157.9441 N.ar    1  UNL1       -0.2034
     13 C         142.0587  145.3443  157.1717 C.ar    1  UNL1        0.2213
     14 N         142.7676  144.3951  158.0917 N.ar    1  UNL1       -0.1409
     15 N         142.0992  144.4633  159.4328 N.ar    1  UNL1       -0.2095
     16 C         142.3672  143.7507  160.7252 C.ar    1  UNL1        0.0978
     17 C         141.2746  142.6937  170.5221 C.3     1  UNL1        0.1149
     18 N         141.3077  141.9369  169.2274 N.am    1  UNL1       -0.2760
     19 C         140.0959  141.1808  168.7694 C.3     1  UNL1        0.1149
     20 C         142.5527  141.9361  168.3908 C.2     1  UNL1        0.2271
     21 O         143.7645  142.6922  168.8488 O.2     1  UNL1       -0.2748
     22 C         142.8872  139.7099  167.0939 C.3     1  UNL1        0.1371
     23 N         142.9792  138.9612  168.3905 N.3     1  UNL1       -0.3146
     24 H         142.8110  139.6022  169.1659 H       1  UNL1        0.1192
     25 H         143.9095  138.5533  168.4824 H       1  UNL1        0.1192
     26 C         143.0966  138.9892  165.7953 C.2     1  UNL1        0.2403
     27 O         144.4819  138.8235  165.2442 O.2     1  UNL1       -0.2734
     28 N         141.9207  138.4341  165.0474 N.am    1  UNL1       -0.2730
     29 C         141.9744  137.6939  163.7439 C.3     1  UNL1        0.0993
     30 C         140.5715  137.3242  163.3627 C.3     1  UNL1        0.0898
     31 C         139.6509  137.8359  164.4306 C.3     1  UNL1        0.2835
     32 F         138.5777  137.2304  163.5753 F       1  UNL1       -0.2024
     33 F         138.5058  138.2211  165.3197 F       1  UNL1       -0.2024
     34 C         140.4847  138.5219  165.4718 C.3     1  UNL1        0.1601
@<TRIPOS>BOND
     1    17    18    1
     2    18    19    1
     3    18    20   am
     4    20    21    2
     5     1    20    1
     6     1     2    1
     7     2     3    1
     8     3     4    1
     9     4     5    1
    10     5     8    1
    11     8     9   ar
    12     9    10   ar
    13    10    11   ar
    14    11    12   ar
    15    12    13   ar
    16    13    14   ar
    17    14    15   ar
    18    15    16   ar
    19     5     6    1
    20     6     7    1
    21     1    22    1
    22    22    23    1
    23    22    26    1
    24    26    27    2
    25    26    28   am
    26    28    29    1
    27    29    30    1
    28    30    31    1
    29    31    32    1
    30    31    33    1
    31    31    34    1
    32     7     2    1
    33    34    28    1
    34    16     8   ar
    35    15    11   ar
    36    23    24    1
    37    23    25    1
@<TRIPOS>MOLECULE
*****
 34 37 0 0 0
SMALL
GASTEIGER

@<TRIPOS>ATOM
      1 C         143.2936  141.0151  161.0380 C.3     1  UNL1        0.0997
      2 C         142.7087  141.0679  162.4182 C.3     1  UNL1        0.0104
      3 C         141.3354  140.5208  162.6722 C.3     1  UNL1        0.0009
      4 C         140.7505  140.5735  164.0525 C.3     1  UNL1        0.0044
      5 C         141.5390  141.1733  165.1787 C.3     1  UNL1        0.0239
      6 C         142.9123  141.7204  164.9247 C.3     1  UNL1        0.0044
      7 C         143.4972  141.6677  163.5445 C.3     1  UNL1        0.0009
      8 C         140.9541  141.2261  166.5590 C.ar    1  UNL1       -0.0032
      9 C         140.3712  139.9886  167.1744 C.ar    1  UNL1        0.0004
     10 C         139.7864  140.0414  168.5548 C.ar    1  UNL1        0.0386
     11 C         139.7844  141.3317  169.3196 C.ar    1  UNL1        0.1656
     12 N         139.2821  141.6868  170.6876 N.ar    1  UNL1       -0.2034
     13 C         139.5545  143.1438  170.9177 C.ar    1  UNL1        0.2213
     14 N         140.2252  143.6892  169.6918 N.ar    1  UNL1       -0.1409
     15 N         140.3673  142.5693  168.7041 N.ar    1  UNL1       -0.2095
     16 C         140.9521  142.5164  167.3238 C.ar    1  UNL1        0.0978
     17 C         142.2863  138.0289  158.6260 C.3     1  UNL1        0.1149
     18 N         142.2321  139.3312  159.3683 N.am    1  UNL1       -0.2760
     19 C         141.0624  140.2519  159.1835 C.3     1  UNL1        0.1149
     20 C         143.3477  139.7128  160.2955 C.2     1  UNL1        0.2271
     21 O         144.5174  138.7922  160.4803 O.2     1  UNL1       -0.2748
     22 C         143.8245  142.2647  160.4001 C.3     1  UNL1        0.1371
     23 N         145.2413  142.6900  160.6489 N.3     1  UNL1       -0.3146
     24 H         145.6938  142.0189  161.2695 H       1  UNL1        0.1192
     25 H         145.2479  143.6129  161.0833 H       1  UNL1        0.1192
     26 C         142.9386  143.0888  159.5136 C.2     1  UNL1        0.2403
     27 O         143.0103  142.9286  158.0239 O.2     1  UNL1       -0.2734
     28 N         141.9809  144.0733  160.1168 N.am    1  UNL1       -0.2730
     29 C         141.0377  144.9620  159.3614 C.3     1  UNL1        0.0993
     30 C         140.2722  145.7798  160.3590 C.3     1  UNL1        0.0898
     31 C         140.7423  145.3965  161.7309 C.3     1  UNL1        0.2835
     32 F         139.7407  146.4156  162.1873 F       1  UNL1       -0.2024
     33 F         141.0029  145.2262  163.1982 F       1  UNL1       -0.2024
     34 C         141.7983  144.3418  161.5812 C.3     1  UNL1        0.1601
@<TRIPOS>BOND
     1    17    18    1
     2    18    19    1
     3    18    20   am
     4    20    21    2
     5     1    20    1
     6     1     2    1
     7     2     3    1
     8     3     4    1
     9     4     5    1
    10     5     8    1
    11     8     9   ar
    12     9    10   ar
    13    10    11   ar
    14    11    12   ar
    15    12    13   ar
    16    13    14   ar
    17    14    15   ar
    18    15    16   ar
    19     5     6    1
    20     6     7    1
    21     1    22    1
    22    22    23    1
    23    22    26    1
    24    26    27    2
    25    26    28   am
    26    28    29    1
    27    29    30    1
    28    30    31    1
    29    31    32    1
    30    31    33    1
    31    31    34    1
    32     7     2    1
    33    34    28    1
    34    16     8   ar
    35    15    11   ar
    36    23    24    1
    37    23    25    1
@<TRIPOS>MOLECULE
*****
 34 37 0 0 0
SMALL
GASTEIGER

@<TRIPOS>ATOM
      1 C         142.4917  142.9079  161.2188 C.3     1  UNL1        0.0997
      2 C         142.4378  142.6325  162.6923 C.3     1  UNL1        0.0104
      3 C         143.1655  143.5288  163.6499 C.3     1  UNL1        0.0009
      4 C         143.1116  143.2533  165.1234 C.3     1  UNL1        0.0044
      5 C         142.3301  142.0816  165.6393 C.3     1  UNL1        0.0239
      6 C         141.6024  141.1852  164.6817 C.3     1  UNL1        0.0044
      7 C         141.6563  141.4607  163.2082 C.3     1  UNL1        0.0009
      8 C         142.2762  141.8061  167.1128 C.ar    1  UNL1       -0.0032
      9 C         143.3409  142.3521  168.0173 C.ar    1  UNL1        0.0004
     10 C         143.2870  142.0765  169.4909 C.ar    1  UNL1        0.0386
     11 C         142.1683  141.2550  170.0598 C.ar    1  UNL1        0.1656
     12 N         141.8535  140.8214  171.4608 N.ar    1  UNL1       -0.2034
     13 C         140.5942  140.0073  171.4221 C.ar    1  UNL1        0.2213
     14 N         140.1308  139.9379  169.9971 N.ar    1  UNL1       -0.1409
     15 N         141.1036  140.7090  169.1552 N.ar    1  UNL1       -0.2095
     16 C         141.1576  140.9845  167.6817 C.ar    1  UNL1        0.0978
     17 C         144.1552  140.3245  158.7070 C.3     1  UNL1        0.1149
     18 N         143.1320  141.0121  159.5617 N.am    1  UNL1       -0.2760
     19 C         141.7262  140.4916  159.6139 C.3     1  UNL1        0.1149
     20 C         143.5148  142.2203  160.3641 C.2     1  UNL1        0.2271
     21 O         144.9206  142.7408  160.3119 O.2     1  UNL1       -0.2748
     22 C         141.5224  143.8710  160.5999 C.3     1  UNL1        0.1371
     23 N         142.0260  145.1140  159.9278 N.3     1  UNL1       -0.3146
     24 H         143.0439  145.1427  159.9849 H       1  UNL1        0.1192
     25 H         141.6360  145.9337  160.3929 H       1  UNL1        0.1192
     26 C         140.0498  143.5912  160.6531 C.2     1  UNL1        0.2403
     27 O         139.3508  143.0208  159.4547 O.2     1  UNL1       -0.2734
     28 N         139.2758  143.8818  161.9048 N.am    1  UNL1       -0.2730
     29 C         137.8067  143.6555  162.1056 C.3     1  UNL1        0.0993
     30 C         137.4581  144.0835  163.5003 C.3     1  UNL1        0.0898
     31 C         138.7118  144.5743  164.1615 C.3     1  UNL1        0.2835
     32 F         137.8111  144.8120  165.3372 F       1  UNL1       -0.2024
     33 F         139.7772  145.1148  165.0685 F       1  UNL1       -0.2024
     34 C         139.8352  144.4497  163.1755 C.3     1  UNL1        0.1601
@<TRIPOS>BOND
     1    17    18    1
     2    18    19    1
     3    18    20   am
     4    20    21    2
     5     1    20    1
     6     1     2    1
     7     2     3    1
     8     3     4    1
     9     4     5    1
    10     5     8    1
    11     8     9   ar
    12     9    10   ar
    13    10    11   ar
    14    11    12   ar
    15    12    13   ar
    16    13    14   ar
    17    14    15   ar
    18    15    16   ar
    19     5     6    1
    20     6     7    1
    21     1    22    1
    22    22    23    1
    23    22    26    1
    24    26    27    2
    25    26    28   am
    26    28    29    1
    27    29    30    1
    28    30    31    1
    29    31    32    1
    30    31    33    1
    31    31    34    1
    32     7     2    1
    33    34    28    1
    34    16     8   ar
    35    15    11   ar
    36    23    24    1
    37    23    25    1
@<TRIPOS>MOLECULE
*****
 34 37 0 0 0
SMALL
GASTEIGER

@<TRIPOS>ATOM
      1 C         138.7960  142.3593  162.3643 C.3     1  UNL1        0.0997
      2 C         139.9236  142.2666  161.3795 C.3     1  UNL1        0.0104
      3 C         139.6459  142.3729  159.9093 C.3     1  UNL1        0.0009
      4 C         140.7736  142.2802  158.9244 C.3     1  UNL1        0.0044
      5 C         142.1788  142.0813  159.4098 C.3     1  UNL1        0.0239
      6 C         142.4565  141.9751  160.8800 C.3     1  UNL1        0.0044
      7 C         141.3289  142.0678  161.8649 C.3     1  UNL1        0.0009
      8 C         143.3065  141.9886  158.4250 C.ar    1  UNL1       -0.0032
      9 C         143.1054  141.2785  157.1192 C.ar    1  UNL1        0.0004
     10 C         144.2331  141.1858  156.1343 C.ar    1  UNL1        0.0386
     11 C         145.5618  141.8033  156.4555 C.ar    1  UNL1        0.1656
     12 N         146.8485  141.8720  155.6875 N.ar    1  UNL1       -0.2034
     13 C         147.8447  142.6247  156.5188 C.ar    1  UNL1        0.2213
     14 N         147.1738  143.0211  157.8005 N.ar    1  UNL1       -0.1409
     15 N         145.7629  142.5135  157.7614 N.ar    1  UNL1       -0.2095
     16 C         144.6352  142.6061  158.7461 C.ar    1  UNL1        0.0978
     17 C         138.8075  145.0156  165.3129 C.3     1  UNL1        0.1149
     18 N         139.0340  143.7444  164.5495 N.am    1  UNL1       -0.2760
     19 C         139.7248  142.5871  165.2078 C.3     1  UNL1        0.1149
     20 C         138.5695  143.6305  163.1278 C.2     1  UNL1        0.2271
     21 O         137.8787  144.7878  162.4695 O.2     1  UNL1       -0.2748
     22 C         137.8948  141.1808  162.5857 C.3     1  UNL1        0.1371
     23 N         136.6028  141.3537  163.3280 N.3     1  UNL1       -0.3146
     24 H         136.4989  142.3292  163.6071 H       1  UNL1        0.1192
     25 H         136.6057  140.7610  164.1582 H       1  UNL1        0.1192
     26 C         138.2856  139.8296  162.0649 C.2     1  UNL1        0.2403
     27 O         137.6727  139.3076  160.7992 O.2     1  UNL1       -0.2734
     28 N         139.2894  139.0002  162.8097 N.am    1  UNL1       -0.2730
     29 C         139.7756  137.6378  162.4130 C.3     1  UNL1        0.0993
     30 C         140.7698  137.1832  163.4401 C.3     1  UNL1        0.0898
     31 C         140.8980  138.2647  164.4715 C.3     1  UNL1        0.2835
     32 F         141.8828  137.3269  165.1044 F       1  UNL1       -0.2024
     33 F         141.2322  139.1502  165.6352 F       1  UNL1       -0.2024
     34 C         139.9831  139.3877  164.0819 C.3     1  UNL1        0.1601
@<TRIPOS>BOND
     1    17    18    1
     2    18    19    1
     3    18    20   am
     4    20    21    2
     5     1    20    1
     6     1     2    1
     7     2     3    1
     8     3     4    1
     9     4     5    1
    10     5     8    1
    11     8     9   ar
    12     9    10   ar
    13    10    11   ar
    14    11    12   ar
    15    12    13   ar
    16    13    14   ar
    17    14    15   ar
    18    15    16   ar
    19     5     6    1
    20     6     7    1
    21     1    22    1
    22    22    23    1
    23    22    26    1
    24    26    27    2
    25    26    28   am
    26    28    29    1
    27    29    30    1
    28    30    31    1
    29    31    32    1
    30    31    33    1
    31    31    34    1
    32     7     2    1
    33    34    28    1
    34    16     8   ar
    35    15    11   ar
    36    23    24    1
    37    23    25    1
@<TRIPOS>MOLECULE
*****
 34 37 0 0 0
SMALL
GASTEIGER

@<TRIPOS>ATOM
      1 C         140.2757  143.5045  161.5750 C.3     1  UNL1        0.0997
      2 C         140.3071  143.2394  163.0511 C.3     1  UNL1        0.0104
      3 C         139.4508  144.0512  163.9772 C.3     1  UNL1        0.0009
      4 C         139.4822  143.7860  165.4533 C.3     1  UNL1        0.0044
      5 C         140.3699  142.7093  166.0032 C.3     1  UNL1        0.0239
      6 C         141.2262  141.8975  165.0770 C.3     1  UNL1        0.0044
      7 C         141.1948  142.1626  163.6010 C.3     1  UNL1        0.0009
      8 C         140.4013  142.4441  167.4793 C.ar    1  UNL1       -0.0032
      9 C         140.3805  143.5894  168.4476 C.ar    1  UNL1        0.0004
     10 C         140.4119  143.3242  169.9237 C.ar    1  UNL1        0.0386
     11 C         140.4642  141.9137  170.4313 C.ar    1  UNL1        0.1656
     12 N         140.5038  141.3475  171.8198 N.ar    1  UNL1       -0.2034
     13 C         140.5491  139.8523  171.7095 C.ar    1  UNL1        0.2213
     14 N         140.5375  139.4943  170.2529 N.ar    1  UNL1       -0.1409
     15 N         140.4851  140.7684  169.4629 N.ar    1  UNL1       -0.2095
     16 C         140.4536  141.0336  167.9869 C.ar    1  UNL1        0.0978
     17 C         139.2402  140.6607  159.0079 C.3     1  UNL1        0.1149
     18 N         140.0760  141.5226  159.9071 N.am    1  UNL1       -0.2760
     19 C         141.5479  141.2646  160.0375 C.3     1  UNL1        0.1149
     20 C         139.4399  142.6426  160.6758 C.2     1  UNL1        0.2271
     21 O         137.9681  142.9006  160.5454 O.2     1  UNL1       -0.2748
     22 C         141.0800  144.6316  160.9982 C.3     1  UNL1        0.1371
     23 N         142.4805  144.8754  161.4772 N.3     1  UNL1       -0.3146
     24 H         142.7208  144.1865  162.1901 H       1  UNL1        0.1192
     25 H         142.5457  145.8126  161.8744 H       1  UNL1        0.1192
     26 C         140.4841  145.5148  159.9425 C.2     1  UNL1        0.2403
     27 O         139.4073  146.4945  160.3042 O.2     1  UNL1       -0.2734
     28 N         140.9648  145.4183  158.5248 N.am    1  UNL1       -0.2730
     29 C         140.4660  146.2318  157.3674 C.3     1  UNL1        0.0993
     30 C         141.2216  145.8077  156.1430 C.3     1  UNL1        0.0898
     31 C         142.1873  144.7322  156.5437 C.3     1  UNL1        0.2835
     32 F         142.5644  144.7486  155.0919 F       1  UNL1       -0.2024
     33 F         143.2319  143.6601  156.6408 F       1  UNL1       -0.2024
     34 C         142.0286  144.4915  158.0157 C.3     1  UNL1        0.1601
@<TRIPOS>BOND
     1    17    18    1
     2    18    19    1
     3    18    20   am
     4    20    21    2
     5     1    20    1
     6     1     2    1
     7     2     3    1
     8     3     4    1
     9     4     5    1
    10     5     8    1
    11     8     9   ar
    12     9    10   ar
    13    10    11   ar
    14    11    12   ar
    15    12    13   ar
    16    13    14   ar
    17    14    15   ar
    18    15    16   ar
    19     5     6    1
    20     6     7    1
    21     1    22    1
    22    22    23    1
    23    22    26    1
    24    26    27    2
    25    26    28   am
    26    28    29    1
    27    29    30    1
    28    30    31    1
    29    31    32    1
    30    31    33    1
    31    31    34    1
    32     7     2    1
    33    34    28    1
    34    16     8   ar
    35    15    11   ar
    36    23    24    1
    37    23    25    1
@<TRIPOS>MOLECULE
*****
 34 37 0 0 0
SMALL
GASTEIGER

@<TRIPOS>ATOM
      1 C         138.9214  140.1793  162.0390 C.3     1  UNL1        0.0997
      2 C         140.0319  140.2642  161.0342 C.3     1  UNL1        0.0104
      3 C         141.4269  140.5836  161.4834 C.3     1  UNL1        0.0009
      4 C         142.5374  140.6685  160.4785 C.3     1  UNL1        0.0044
      5 C         142.2528  140.4340  159.0246 C.3     1  UNL1        0.0239
      6 C         140.8578  140.1146  158.5754 C.3     1  UNL1        0.0044
      7 C         139.7473  140.0297  159.5802 C.3     1  UNL1        0.0009
      8 C         143.3633  140.5189  158.0197 C.ar    1  UNL1       -0.0032
      9 C         143.3986  139.5697  156.8589 C.ar    1  UNL1        0.0004
     10 C         144.5091  139.6546  155.8540 C.ar    1  UNL1        0.0386
     11 C         145.5842  140.6889  156.0101 C.ar    1  UNL1        0.1656
     12 N         146.7953  141.0100  155.1853 N.ar    1  UNL1       -0.2034
     13 C         147.5084  142.1578  155.8365 C.ar    1  UNL1        0.2213
     14 N         146.7382  142.5460  157.0637 N.ar    1  UNL1       -0.1409
     15 N         145.5490  141.6381  157.1710 N.ar    1  UNL1       -0.2095
     16 C         144.4385  141.5531  158.1758 C.ar    1  UNL1        0.0978
     17 C         139.0075  137.5243  164.9875 C.3     1  UNL1        0.1149
     18 N         139.2241  138.7913  164.2143 N.am    1  UNL1       -0.2760
     19 C         139.9599  139.9373  164.8431 C.3     1  UNL1        0.1149
     20 C         138.7049  138.9123  162.8123 C.2     1  UNL1        0.2271
     21 O         137.9691  137.7663  162.1835 O.2     1  UNL1       -0.2748
     22 C         138.0274  141.3613  162.2705 C.3     1  UNL1        0.1371
     23 N         136.8416  141.2378  163.1808 N.3     1  UNL1       -0.3146
     24 H         136.7957  140.2891  163.5526 H       1  UNL1        0.1192
     25 H         135.9892  141.4398  162.6581 H       1  UNL1        0.1192
     26 C         138.3193  142.6667  161.5918 C.2     1  UNL1        0.2403
     27 O         137.6314  143.0131  160.3046 O.2     1  UNL1       -0.2734
     28 N         139.2991  143.6258  162.2003 N.am    1  UNL1       -0.2730
     29 C         139.6900  144.9611  161.6397 C.3     1  UNL1        0.0993
     30 C         140.6924  145.5785  162.5691 C.3     1  UNL1        0.0898
     31 C         140.9211  144.6249  163.7041 C.3     1  UNL1        0.2835
     32 F         141.8716  145.6784  164.1906 F       1  UNL1       -0.2024
     33 F         141.3484  143.8915  164.9408 F       1  UNL1       -0.2024
     34 C         140.0599  143.4180  163.4762 C.3     1  UNL1        0.1601
@<TRIPOS>BOND
     1    17    18    1
     2    18    19    1
     3    18    20   am
     4    20    21    2
     5     1    20    1
     6     1     2    1
     7     2     3    1
     8     3     4    1
     9     4     5    1
    10     5     8    1
    11     8     9   ar
    12     9    10   ar
    13    10    11   ar
    14    11    12   ar
    15    12    13   ar
    16    13    14   ar
    17    14    15   ar
    18    15    16   ar
    19     5     6    1
    20     6     7    1
    21     1    22    1
    22    22    23    1
    23    22    26    1
    24    26    27    2
    25    26    28   am
    26    28    29    1
    27    29    30    1
    28    30    31    1
    29    31    32    1
    30    31    33    1
    31    31    34    1
    32     7     2    1
    33    34    28    1
    34    16     8   ar
    35    15    11   ar
    36    23    24    1
    37    23    25    1
@<TRIPOS>MOLECULE
*****
 34 37 0 0 0
SMALL
GASTEIGER

@<TRIPOS>ATOM
      1 C         143.5387  141.1729  161.2259 C.3     1  UNL1        0.0997
      2 C         143.2822  141.2215  162.7030 C.3     1  UNL1        0.0104
      3 C         142.1439  140.4427  163.2926 C.3     1  UNL1        0.0009
      4 C         141.8874  140.4913  164.7698 C.3     1  UNL1        0.0044
      5 C         142.7691  141.3188  165.6572 C.3     1  UNL1        0.0239
      6 C         143.9074  142.0977  165.0676 C.3     1  UNL1        0.0044
      7 C         144.1639  142.0491  163.5905 C.3     1  UNL1        0.0009
      8 C         142.5127  141.3675  167.1344 C.ar    1  UNL1       -0.0032
      9 C         143.2859  142.3185  167.9989 C.ar    1  UNL1        0.0004
     10 C         143.0295  142.3672  169.4761 C.ar    1  UNL1        0.0386
     11 C         141.9997  141.4648  170.0886 C.ar    1  UNL1        0.1656
     12 N         141.5324  141.2899  171.5032 N.ar    1  UNL1       -0.2034
     13 C         140.4703  140.2307  171.5128 C.ar    1  UNL1        0.2213
     14 N         140.2812  139.7510  170.1042 N.ar    1  UNL1       -0.1409
     15 N         141.2264  140.5137  169.2240 N.ar    1  UNL1       -0.2095
     16 C         141.4829  140.4651  167.7469 C.ar    1  UNL1        0.0978
     17 C         141.7597  138.3677  159.0541 C.3     1  UNL1        0.1149
     18 N         141.9865  139.6415  159.8132 N.am    1  UNL1       -0.2760
     19 C         140.8881  140.6575  159.9187 C.3     1  UNL1        0.1149
     20 C         143.3118  139.8992  160.4668 C.2     1  UNL1        0.2271
     21 O         144.4102  138.8832  160.3613 O.2     1  UNL1       -0.2748
     22 C         144.0220  142.3980  160.5079 C.3     1  UNL1        0.1371
     23 N         145.4456  142.8450  160.6623 N.3     1  UNL1       -0.3146
     24 H         145.9372  142.2049  161.2860 H       1  UNL1        0.1192
     25 H         145.4657  143.7858  161.0560 H       1  UNL1        0.1192
     26 C         143.0820  143.1759  159.6356 C.2     1  UNL1        0.2403
     27 O         143.1523  143.0344  158.1439 O.2     1  UNL1       -0.2734
     28 N         142.0716  144.0955  160.2549 N.am    1  UNL1       -0.2730
     29 C         141.0714  144.9332  159.5147 C.3     1  UNL1        0.0993
     30 C         140.2657  145.6943  160.5254 C.3     1  UNL1        0.0898
     31 C         140.7678  145.3268  161.8902 C.3     1  UNL1        0.2835
     32 F         139.7105  146.2798  162.3635 F       1  UNL1       -0.2024
     33 F         141.0489  145.1586  163.3540 F       1  UNL1       -0.2024
     34 C         141.8839  144.3388  161.7231 C.3     1  UNL1        0.1601
@<TRIPOS>BOND
     1    17    18    1
     2    18    19    1
     3    18    20   am
     4    20    21    2
     5     1    20    1
     6     1     2    1
     7     2     3    1
     8     3     4    1
     9     4     5    1
    10     5     8    1
    11     8     9   ar
    12     9    10   ar
    13    10    11   ar
    14    11    12   ar
    15    12    13   ar
    16    13    14   ar
    17    14    15   ar
    18    15    16   ar
    19     5     6    1
    20     6     7    1
    21     1    22    1
    22    22    23    1
    23    22    26    1
    24    26    27    2
    25    26    28   am
    26    28    29    1
    27    29    30    1
    28    30    31    1
    29    31    32    1
    30    31    33    1
    31    31    34    1
    32     7     2    1
    33    34    28    1
    34    16     8   ar
    35    15    11   ar
    36    23    24    1
    37    23    25    1
@<TRIPOS>MOLECULE
*****
 34 37 0 0 0
SMALL
GASTEIGER

@<TRIPOS>ATOM
      1 C         142.4298  139.4402  159.6586 C.3     1  UNL1        0.0997
      2 C         141.7942  139.4328  161.0173 C.3     1  UNL1        0.0104
      3 C         140.6005  140.2988  161.2916 C.3     1  UNL1        0.0009
      4 C         139.9650  140.2913  162.6504 C.3     1  UNL1        0.0044
      5 C         140.5231  139.4180  163.7346 C.3     1  UNL1        0.0239
      6 C         141.7168  138.5521  163.4603 C.3     1  UNL1        0.0044
      7 C         142.3523  138.5595  162.1016 C.3     1  UNL1        0.0009
      8 C         139.8875  139.4106  165.0934 C.ar    1  UNL1       -0.0032
      9 C         138.6118  138.6552  165.3205 C.ar    1  UNL1        0.0004
     10 C         137.9762  138.6477  166.6793 C.ar    1  UNL1        0.0386
     11 C         138.6166  139.3957  167.8108 C.ar    1  UNL1        0.1656
     12 N         138.2250  139.5689  169.2484 N.ar    1  UNL1       -0.2034
     13 C         139.2588  140.4314  169.9097 C.ar    1  UNL1        0.2213
     14 N         140.2894  140.7912  168.8809 N.ar    1  UNL1       -0.1409
     15 N         139.8924  140.1511  167.5836 N.ar    1  UNL1       -0.2095
     16 C         140.5279  140.1585  166.2249 C.ar    1  UNL1        0.0978
     17 C         140.6970  137.3333  156.7763 C.3     1  UNL1        0.1149
     18 N         140.9839  138.4424  157.7446 N.am    1  UNL1       -0.2760
     19 C         140.1119  139.6627  157.7671 C.3     1  UNL1        0.1149
     20 C         142.1428  138.3312  158.6903 C.2     1  UNL1        0.2271
     21 O         143.0148  137.1109  158.6678 O.2     1  UNL1       -0.2748
     22 C         143.3523  140.5567  159.2683 C.3     1  UNL1        0.1371
     23 N         144.4571  140.3075  158.2846 N.3     1  UNL1       -0.3146
     24 H         144.4334  139.3323  157.9866 H       1  UNL1        0.1192
     25 H         145.3555  140.5069  158.7246 H       1  UNL1        0.1192
     26 C         143.1702  141.9223  159.8615 C.2     1  UNL1        0.2403
     27 O         142.3352  142.9444  159.1488 O.2     1  UNL1       -0.2734
     28 N         143.8230  142.2658  161.1676 N.am    1  UNL1       -0.2730
     29 C         143.7316  143.5830  161.8795 C.3     1  UNL1        0.0993
     30 C         144.5340  143.4837  163.1429 C.3     1  UNL1        0.0898
     31 C         145.1212  142.1052  163.2119 C.3     1  UNL1        0.2835
     32 F         145.7091  142.5909  164.5036 F       1  UNL1       -0.2024
     33 F         145.8314  140.8282  163.5510 F       1  UNL1       -0.2024
     34 C         144.6818  141.3525  161.9912 C.3     1  UNL1        0.1601
@<TRIPOS>BOND
     1    17    18    1
     2    18    19    1
     3    18    20   am
     4    20    21    2
     5     1    20    1
     6     1     2    1
     7     2     3    1
     8     3     4    1
     9     4     5    1
    10     5     8    1
    11     8     9   ar
    12     9    10   ar
    13    10    11   ar
    14    11    12   ar
    15    12    13   ar
    16    13    14   ar
    17    14    15   ar
    18    15    16   ar
    19     5     6    1
    20     6     7    1
    21     1    22    1
    22    22    23    1
    23    22    26    1
    24    26    27    2
    25    26    28   am
    26    28    29    1
    27    29    30    1
    28    30    31    1
    29    31    32    1
    30    31    33    1
    31    31    34    1
    32     7     2    1
    33    34    28    1
    34    16     8   ar
    35    15    11   ar
    36    23    24    1
    37    23    25    1
@<TRIPOS>MOLECULE
*****
 34 37 0 0 0
SMALL
GASTEIGER

@<TRIPOS>ATOM
      1 C         141.0465  142.6007  161.0231 C.3     1  UNL1        0.0997
      2 C         141.2119  142.5380  162.5126 C.3     1  UNL1        0.0104
      3 C         140.3574  143.3950  163.3988 C.3     1  UNL1        0.0009
      4 C         140.5229  143.3322  164.8884 C.3     1  UNL1        0.0044
      5 C         141.5428  142.4127  165.4917 C.3     1  UNL1        0.0239
      6 C         142.3974  141.5557  164.6054 C.3     1  UNL1        0.0044
      7 C         142.2319  141.6184  163.1159 C.3     1  UNL1        0.0009
      8 C         141.7084  142.3500  166.9812 C.ar    1  UNL1       -0.0032
      9 C         143.0820  142.3424  167.5836 C.ar    1  UNL1        0.0004
     10 C         143.2475  142.2797  169.0732 C.ar    1  UNL1        0.0386
     11 C         142.0392  142.2245  169.9603 C.ar    1  UNL1        0.1656
     12 N         141.8912  142.1575  171.4514 N.ar    1  UNL1       -0.2034
     13 C         140.4259  142.1236  171.7706 C.ar    1  UNL1        0.2213
     14 N         139.6684  142.1697  170.4768 N.ar    1  UNL1       -0.1409
     15 N         140.6655  142.2321  169.3579 N.ar    1  UNL1       -0.2095
     16 C         140.5001  142.2948  167.8684 C.ar    1  UNL1        0.0978
     17 C         144.2697  142.8086  158.7171 C.3     1  UNL1        0.1149
     18 N         143.1715  142.2471  159.5707 N.am    1  UNL1       -0.2760
     19 C         143.1000  140.7706  159.8256 C.3     1  UNL1        0.1149
     20 C         142.1447  143.1621  160.1694 C.2     1  UNL1        0.2271
     21 O         142.2162  144.6385  159.9145 O.2     1  UNL1       -0.2748
     22 C         139.7828  142.1020  160.3872 C.3     1  UNL1        0.1371
     23 N         138.7079  143.0715  159.9939 N.3     1  UNL1       -0.3146
     24 H         139.0019  144.0193  160.2299 H       1  UNL1        0.1192
     25 H         137.8481  142.8476  160.4949 H       1  UNL1        0.1192
     26 C         139.5940  140.6339  160.1447 C.2     1  UNL1        0.2403
     27 O         139.7538  140.0754  158.7617 O.2     1  UNL1       -0.2734
     28 N         139.2454  139.7240  161.2852 N.am    1  UNL1       -0.2730
     29 C         139.0270  138.2426  161.1963 C.3     1  UNL1        0.0993
     30 C         138.7006  137.7389  162.5710 C.3     1  UNL1        0.0898
     31 C         138.7174  138.9089  163.5094 C.3     1  UNL1        0.2835
     32 F         138.3690  137.8817  164.5456 F       1  UNL1       -0.2024
     33 F         138.6613  139.8641  164.6646 F       1  UNL1       -0.2024
     34 C         139.0541  140.1357  162.7148 C.3     1  UNL1        0.1601
@<TRIPOS>BOND
     1    17    18    1
     2    18    19    1
     3    18    20   am
     4    20    21    2
     5     1    20    1
     6     1     2    1
     7     2     3    1
     8     3     4    1
     9     4     5    1
    10     5     8    1
    11     8     9   ar
    12     9    10   ar
    13    10    11   ar
    14    11    12   ar
    15    12    13   ar
    16    13    14   ar
    17    14    15   ar
    18    15    16   ar
    19     5     6    1
    20     6     7    1
    21     1    22    1
    22    22    23    1
    23    22    26    1
    24    26    27    2
    25    26    28   am
    26    28    29    1
    27    29    30    1
    28    30    31    1
    29    31    32    1
    30    31    33    1
    31    31    34    1
    32     7     2    1
    33    34    28    1
    34    16     8   ar
    35    15    11   ar
    36    23    24    1
    37    23    25    1
