@<TRIPOS>MOLECULE
*****
 27 29 0 0 0
SMALL
GASTEIGER

@<TRIPOS>ATOM
      1 C         143.1231  140.2855  165.6395 C.ar    1  UNL1        0.0617
      2 C         143.9820  140.2179  164.4115 C.ar    1  UNL1        0.0326
      3 C         144.6093  141.5654  164.2099 C.ar    1  UNL1        0.0977
      4 N         144.1382  142.4658  165.3132 N.ar    1  UNL1       -0.1683
      5 N         143.2197  141.6748  166.1968 N.ar    1  UNL1       -0.2340
      6 C         142.5206  142.1838  167.4223 C.ar    1  UNL1        0.0824
      7 C         143.2793  142.3449  168.7063 C.ar    1  UNL1        0.0191
      8 C         142.5801  142.8538  169.9318 C.ar    1  UNL1        0.0015
      9 C         141.1222  143.2017  169.8736 C.ar    1  UNL1        0.0001
     10 C         140.3633  143.0406  168.5897 C.ar    1  UNL1        0.0015
     11 C         141.0626  142.5316  167.3641 C.ar    1  UNL1        0.0191
     12 C         142.3104  139.1612  166.2101 C.3     1  UNL1        0.0459
     13 C         141.2346  137.4137  164.6168 C.3     1  UNL1        0.0004
     14 C         141.1156  138.6457  165.4640 C.3     1  UNL1        0.0059
     15 C         139.8017  139.3623  165.5652 C.3     1  UNL1        0.0004
     16 C         145.5437  141.9457  163.0998 C.3     1  UNL1        0.1387
     17 N         145.0197  142.6628  161.8910 N.3     1  UNL1       -0.1733
     18 H         144.9191  141.9641  161.1547 H       1  UNL1        0.1492
     19 S         143.7182  143.4047  161.9647 S.O2    1  UNL1        0.0606
     20 O         143.0047  142.2085  161.4080 O.2     1  UNL1       -0.1530
     21 O         144.4316  144.6010  162.5214 O.2     1  UNL1       -0.1530
     22 C         142.4166  144.1468  162.0384 C.ar    1  UNL1        0.1220
     23 C         141.7198  144.5659  160.7779 C.ar    1  UNL1        0.0199
     24 C         140.4183  145.3079  160.8517 C.ar    1  UNL1        0.0014
     25 C         139.8135  145.6307  162.1859 C.ar    1  UNL1        0.0001
     26 C         140.5103  145.2116  163.4463 C.ar    1  UNL1        0.0014
     27 C         141.8118  144.4696  163.3726 C.ar    1  UNL1        0.0199
@<TRIPOS>BOND
     1    13    14    1
     2    14    15    1
     3    14    12    1
     4    12     1    1
     5     1     2   ar
     6     2     3   ar
     7     3    16    1
     8    16    17    1
     9    17    19    1
    10    19    20    2
    11    19    21    2
    12    19    22    1
    13    22    23   ar
    14    23    24   ar
    15    24    25   ar
    16    25    26   ar
    17    26    27   ar
    18     3     4   ar
    19     4     5   ar
    20     5     6    1
    21     6     7   ar
    22     7     8   ar
    23     8     9   ar
    24     9    10   ar
    25    10    11   ar
    26     5     1   ar
    27    11     6   ar
    28    27    22   ar
    29    17    18    1
@<TRIPOS>MOLECULE
*****
 27 29 0 0 0
SMALL
GASTEIGER

@<TRIPOS>ATOM
      1 C         139.4422  141.4693  165.6230 C.ar    1  UNL1        0.0617
      2 C         138.6250  141.8970  164.4400 C.ar    1  UNL1        0.0326
      3 C         138.6780  143.3938  164.3569 C.ar    1  UNL1        0.0977
      4 N         139.5279  143.8912  165.4883 N.ar    1  UNL1       -0.1683
      5 N         140.0003  142.7018  166.2708 N.ar    1  UNL1       -0.2340
      6 C         140.8767  142.7384  167.4875 C.ar    1  UNL1        0.0824
      7 C         140.3579  143.3218  168.7684 C.ar    1  UNL1        0.0191
      8 C         141.2343  143.3584  169.9851 C.ar    1  UNL1        0.0015
      9 C         142.6297  142.8117  169.9210 C.ar    1  UNL1        0.0001
     10 C         143.1486  142.2284  168.6401 C.ar    1  UNL1        0.0015
     11 C         142.2721  142.1918  167.4234 C.ar    1  UNL1        0.0191
     12 C         139.6627  140.0571  166.0781 C.3     1  UNL1        0.0459
     13 C         139.1930  139.8849  168.6275 C.3     1  UNL1        0.0004
     14 C         138.8588  139.5019  167.2163 C.3     1  UNL1        0.0059
     15 C         137.7208  138.5636  166.9433 C.3     1  UNL1        0.0004
     16 C         138.0000  144.2439  163.3236 C.3     1  UNL1        0.1387
     17 N         138.7880  144.7980  162.1737 N.3     1  UNL1       -0.1733
     18 H         138.7892  145.8126  162.2793 H       1  UNL1        0.1492
     19 S         140.2150  144.3819  161.9727 S.O2    1  UNL1        0.0606
     20 O         140.6754  145.6063  162.7067 O.2     1  UNL1       -0.1530
     21 O         139.7545  143.1575  161.2387 O.2     1  UNL1       -0.1530
     22 C         141.6420  143.9658  161.7716 C.ar    1  UNL1        0.1220
     23 C         142.0104  143.0843  160.6152 C.ar    1  UNL1        0.0199
     24 C         143.4374  142.6682  160.4142 C.ar    1  UNL1        0.0014
     25 C         144.4960  143.1335  161.3696 C.ar    1  UNL1        0.0001
     26 C         144.1277  144.0150  162.5260 C.ar    1  UNL1        0.0014
     27 C         142.7007  144.4311  162.7270 C.ar    1  UNL1        0.0199
@<TRIPOS>BOND
     1    13    14    1
     2    14    15    1
     3    14    12    1
     4    12     1    1
     5     1     2   ar
     6     2     3   ar
     7     3    16    1
     8    16    17    1
     9    17    19    1
    10    19    20    2
    11    19    21    2
    12    19    22    1
    13    22    23   ar
    14    23    24   ar
    15    24    25   ar
    16    25    26   ar
    17    26    27   ar
    18     3     4   ar
    19     4     5   ar
    20     5     6    1
    21     6     7   ar
    22     7     8   ar
    23     8     9   ar
    24     9    10   ar
    25    10    11   ar
    26     5     1   ar
    27    11     6   ar
    28    27    22   ar
    29    17    18    1
@<TRIPOS>MOLECULE
*****
 27 29 0 0 0
SMALL
GASTEIGER

@<TRIPOS>ATOM
      1 C         141.4149  142.9749  165.2336 C.ar    1  UNL1        0.0617
      2 C         141.8101  143.7538  164.0139 C.ar    1  UNL1        0.0326
      3 C         143.3083  143.8058  163.9625 C.ar    1  UNL1        0.0977
      4 N         143.8391  143.0592  165.1503 N.ar    1  UNL1       -0.1683
      5 N         142.6690  142.5457  165.9358 N.ar    1  UNL1       -0.2340
      6 C         142.7404  141.7438  167.2014 C.ar    1  UNL1        0.0824
      7 C         143.1682  142.3987  168.4813 C.ar    1  UNL1        0.0191
      8 C         143.2396  141.5968  169.7468 C.ar    1  UNL1        0.0015
      9 C         142.8832  140.1399  169.7326 C.ar    1  UNL1        0.0001
     10 C         142.4554  139.4848  168.4528 C.ar    1  UNL1        0.0015
     11 C         142.3840  140.2868  167.1872 C.ar    1  UNL1        0.0191
     12 C         140.0121  142.6776  165.6737 C.3     1  UNL1        0.0459
     13 C         138.7079  144.9140  165.4558 C.3     1  UNL1        0.0004
     14 C         138.8663  143.4634  165.1083 C.3     1  UNL1        0.0059
     15 C         137.8789  142.7986  164.1956 C.3     1  UNL1        0.0004
     16 C         144.1312  144.4852  162.9083 C.3     1  UNL1        0.1387
     17 N         144.8694  143.6674  161.8903 N.3     1  UNL1       -0.1733
     18 H         145.8532  143.6808  162.1592 H       1  UNL1        0.1492
     19 S         144.4998  142.2302  161.6717 S.O2    1  UNL1        0.0606
     20 O         143.3415  142.6577  160.8199 O.2     1  UNL1       -0.1530
     21 O         145.6580  141.8028  162.5236 O.2     1  UNL1       -0.1530
     22 C         144.1302  140.7930  161.4531 C.ar    1  UNL1        0.1220
     23 C         144.1409  139.8323  162.6050 C.ar    1  UNL1        0.0199
     24 C         143.7713  138.3951  162.3864 C.ar    1  UNL1        0.0014
     25 C         143.3910  137.9186  161.0159 C.ar    1  UNL1        0.0001
     26 C         143.3803  138.8793  159.8640 C.ar    1  UNL1        0.0014
     27 C         143.7498  140.3165  160.0826 C.ar    1  UNL1        0.0199
@<TRIPOS>BOND
     1    13    14    1
     2    14    15    1
     3    14    12    1
     4    12     1    1
     5     1     2   ar
     6     2     3   ar
     7     3    16    1
     8    16    17    1
     9    17    19    1
    10    19    20    2
    11    19    21    2
    12    19    22    1
    13    22    23   ar
    14    23    24   ar
    15    24    25   ar
    16    25    26   ar
    17    26    27   ar
    18     3     4   ar
    19     4     5   ar
    20     5     6    1
    21     6     7   ar
    22     7     8   ar
    23     8     9   ar
    24     9    10   ar
    25    10    11   ar
    26     5     1   ar
    27    11     6   ar
    28    27    22   ar
    29    17    18    1
@<TRIPOS>MOLECULE
*****
 27 29 0 0 0
SMALL
GASTEIGER

@<TRIPOS>ATOM
      1 C         142.0014  142.4049  165.1889 C.ar    1  UNL1        0.0617
      2 C         141.1738  143.2526  164.2687 C.ar    1  UNL1        0.0326
      3 C         140.0244  143.8066  165.0574 C.ar    1  UNL1        0.0977
      4 N         140.1416  143.3015  166.4649 N.ar    1  UNL1       -0.1683
      5 N         141.3635  142.4352  166.5462 N.ar    1  UNL1       -0.2340
      6 C         141.8602  141.7241  167.7698 C.ar    1  UNL1        0.0824
      7 C         142.9335  142.3446  168.6143 C.ar    1  UNL1        0.0191
      8 C         143.4302  141.6335  169.8379 C.ar    1  UNL1        0.0015
      9 C         142.8537  140.3017  170.2173 C.ar    1  UNL1        0.0001
     10 C         141.7804  139.6810  169.3729 C.ar    1  UNL1        0.0015
     11 C         141.2837  140.3923  168.1492 C.ar    1  UNL1        0.0191
     12 C         143.2481  141.6582  164.8170 C.3     1  UNL1        0.0459
     13 C         145.6654  141.8239  163.8796 C.3     1  UNL1        0.0004
     14 C         144.5567  142.3848  164.7199 C.3     1  UNL1        0.0059
     15 C         144.7567  143.6723  165.4631 C.3     1  UNL1        0.0004
     16 C         138.9469  144.7077  164.5309 C.3     1  UNL1        0.1387
     17 N         137.7213  144.1199  163.8964 N.3     1  UNL1       -0.1733
     18 H         137.1796  144.8999  163.5241 H       1  UNL1        0.1492
     19 S         137.8574  143.1189  162.7877 S.O2    1  UNL1        0.0606
     20 O         137.3221  142.0468  163.6899 O.2     1  UNL1       -0.1530
     21 O         138.3927  144.1910  161.8855 O.2     1  UNL1       -0.1530
     22 C         137.9935  142.1179  161.6788 C.ar    1  UNL1        0.1220
     23 C         137.5954  140.6895  161.9049 C.ar    1  UNL1        0.0199
     24 C         137.7315  139.6885  160.7961 C.ar    1  UNL1        0.0014
     25 C         138.2657  140.1160  159.4612 C.ar    1  UNL1        0.0001
     26 C         138.6638  141.5443  159.2351 C.ar    1  UNL1        0.0014
     27 C         138.5277  142.5453  160.3440 C.ar    1  UNL1        0.0199
@<TRIPOS>BOND
     1    13    14    1
     2    14    15    1
     3    14    12    1
     4    12     1    1
     5     1     2   ar
     6     2     3   ar
     7     3    16    1
     8    16    17    1
     9    17    19    1
    10    19    20    2
    11    19    21    2
    12    19    22    1
    13    22    23   ar
    14    23    24   ar
    15    24    25   ar
    16    25    26   ar
    17    26    27   ar
    18     3     4   ar
    19     4     5   ar
    20     5     6    1
    21     6     7   ar
    22     7     8   ar
    23     8     9   ar
    24     9    10   ar
    25    10    11   ar
    26     5     1   ar
    27    11     6   ar
    28    27    22   ar
    29    17    18    1
@<TRIPOS>MOLECULE
*****
 27 29 0 0 0
SMALL
GASTEIGER

@<TRIPOS>ATOM
      1 C         141.0303  139.4694  165.2864 C.ar    1  UNL1        0.0617
      2 C         140.5471  138.9444  163.9668 C.ar    1  UNL1        0.0326
      3 C         139.0898  139.2772  163.8412 C.ar    1  UNL1        0.0977
      4 N         138.6724  140.0077  165.0830 N.ar    1  UNL1       -0.1683
      5 N         139.8716  140.1265  165.9761 N.ar    1  UNL1       -0.2340
      6 C         139.9061  140.7865  167.3226 C.ar    1  UNL1        0.0824
      7 C         140.4877  142.1614  167.4693 C.ar    1  UNL1        0.0191
      8 C         140.5222  142.8215  168.8158 C.ar    1  UNL1        0.0015
      9 C         139.9752  142.1066  170.0157 C.ar    1  UNL1        0.0001
     10 C         139.3936  140.7317  169.8691 C.ar    1  UNL1        0.0015
     11 C         139.3591  140.0717  168.5225 C.ar    1  UNL1        0.0191
     12 C         142.4268  139.3569  165.8220 C.3     1  UNL1        0.0459
     13 C         144.6361  139.4775  164.4603 C.3     1  UNL1        0.0004
     14 C         143.5325  140.1641  165.2090 C.3     1  UNL1        0.0059
     15 C         143.5346  141.6580  165.3446 C.3     1  UNL1        0.0004
     16 C         138.2053  138.9388  162.6779 C.3     1  UNL1        0.1387
     17 N         137.4719  140.0273  161.9518 N.3     1  UNL1       -0.1733
     18 H         136.5598  140.1171  162.3995 H       1  UNL1        0.1492
     19 S         138.0566  141.4067  161.8797 S.O2    1  UNL1        0.0606
     20 O         137.0347  141.8914  162.8649 O.2     1  UNL1       -0.1530
     21 O         139.0785  140.9220  160.8945 O.2     1  UNL1       -0.1530
     22 C         138.6414  142.7862  161.8076 C.ar    1  UNL1        0.1220
     23 C         138.3269  143.7909  162.8761 C.ar    1  UNL1        0.0199
     24 C         138.9117  145.1703  162.8039 C.ar    1  UNL1        0.0014
     25 C         139.8109  145.5450  161.6633 C.ar    1  UNL1        0.0001
     26 C         140.1254  144.5403  160.5949 C.ar    1  UNL1        0.0014
     27 C         139.5406  143.1609  160.6670 C.ar    1  UNL1        0.0199
@<TRIPOS>BOND
     1    13    14    1
     2    14    15    1
     3    14    12    1
     4    12     1    1
     5     1     2   ar
     6     2     3   ar
     7     3    16    1
     8    16    17    1
     9    17    19    1
    10    19    20    2
    11    19    21    2
    12    19    22    1
    13    22    23   ar
    14    23    24   ar
    15    24    25   ar
    16    25    26   ar
    17    26    27   ar
    18     3     4   ar
    19     4     5   ar
    20     5     6    1
    21     6     7   ar
    22     7     8   ar
    23     8     9   ar
    24     9    10   ar
    25    10    11   ar
    26     5     1   ar
    27    11     6   ar
    28    27    22   ar
    29    17    18    1
@<TRIPOS>MOLECULE
*****
 27 29 0 0 0
SMALL
GASTEIGER

@<TRIPOS>ATOM
      1 C         141.0108  139.4120  165.2669 C.ar    1  UNL1        0.0617
      2 C         140.5162  138.8711  163.9581 C.ar    1  UNL1        0.0326
      3 C         139.0614  139.2149  163.8346 C.ar    1  UNL1        0.0977
      4 N         138.6568  139.9681  165.0671 N.ar    1  UNL1       -0.1683
      5 N         139.8616  140.0900  165.9523 N.ar    1  UNL1       -0.2340
      6 C         139.9088  140.7703  167.2882 C.ar    1  UNL1        0.0824
      7 C         139.3746  140.0732  168.5043 C.ar    1  UNL1        0.0191
      8 C         139.4219  140.7536  169.8402 C.ar    1  UNL1        0.0015
      9 C         140.0034  142.1310  169.9602 C.ar    1  UNL1        0.0001
     10 C         140.5377  142.8282  168.7442 C.ar    1  UNL1        0.0015
     11 C         140.4903  142.1478  167.4082 C.ar    1  UNL1        0.0191
     12 C         142.4091  139.2954  165.7972 C.3     1  UNL1        0.0459
     13 C         143.4388  141.6158  165.2449 C.3     1  UNL1        0.0004
     14 C         143.5100  140.1183  165.1966 C.3     1  UNL1        0.0059
     15 C         144.6822  139.4436  164.5478 C.3     1  UNL1        0.0004
     16 C         138.1679  138.8665  162.6811 C.3     1  UNL1        0.1387
     17 N         137.4528  139.9515  161.9320 N.3     1  UNL1       -0.1733
     18 H         136.5254  140.0349  162.3484 H       1  UNL1        0.1492
     19 S         138.0309  141.3347  161.8819 S.O2    1  UNL1        0.0606
     20 O         139.0806  140.8613  160.9208 O.2     1  UNL1       -0.1530
     21 O         136.9811  141.8082  162.8431 O.2     1  UNL1       -0.1530
     22 C         138.6089  142.7180  161.8319 C.ar    1  UNL1        0.1220
     23 C         139.4835  143.1243  160.6831 C.ar    1  UNL1        0.0199
     24 C         140.0615  144.5075  160.6331 C.ar    1  UNL1        0.0014
     25 C         139.7649  145.4845  161.7320 C.ar    1  UNL1        0.0001
     26 C         138.8902  145.0782  162.8808 C.ar    1  UNL1        0.0014
     27 C         138.3122  143.6950  162.9308 C.ar    1  UNL1        0.0199
@<TRIPOS>BOND
     1    13    14    1
     2    14    15    1
     3    14    12    1
     4    12     1    1
     5     1     2   ar
     6     2     3   ar
     7     3    16    1
     8    16    17    1
     9    17    19    1
    10    19    20    2
    11    19    21    2
    12    19    22    1
    13    22    23   ar
    14    23    24   ar
    15    24    25   ar
    16    25    26   ar
    17    26    27   ar
    18     3     4   ar
    19     4     5   ar
    20     5     6    1
    21     6     7   ar
    22     7     8   ar
    23     8     9   ar
    24     9    10   ar
    25    10    11   ar
    26     5     1   ar
    27    11     6   ar
    28    27    22   ar
    29    17    18    1
@<TRIPOS>MOLECULE
*****
 27 29 0 0 0
SMALL
GASTEIGER

@<TRIPOS>ATOM
      1 C         142.9758  139.0426  164.8648 C.ar    1  UNL1        0.0617
      2 C         143.9405  139.4886  163.8062 C.ar    1  UNL1        0.0326
      3 C         144.4745  140.8332  164.2026 C.ar    1  UNL1        0.0977
      4 N         143.8399  141.2181  165.5061 N.ar    1  UNL1       -0.1683
      5 N         142.9137  140.1115  165.9154 N.ar    1  UNL1       -0.2340
      6 C         142.0730  140.0794  167.1571 C.ar    1  UNL1        0.0824
      7 C         140.6559  140.5698  167.1165 C.ar    1  UNL1        0.0191
      8 C         139.8152  140.5377  168.3582 C.ar    1  UNL1        0.0015
      9 C         140.3914  140.0153  169.6408 C.ar    1  UNL1        0.0001
     10 C         141.8085  139.5249  169.6816 C.ar    1  UNL1        0.0015
     11 C         142.6492  139.5570  168.4397 C.ar    1  UNL1        0.0191
     12 C         142.2082  137.7539  164.8717 C.3     1  UNL1        0.0459
     13 C         139.6115  137.6805  164.9144 C.3     1  UNL1        0.0004
     14 C         140.8992  137.6569  164.1455 C.3     1  UNL1        0.0059
     15 C         140.8780  137.5363  162.6505 C.3     1  UNL1        0.0004
     16 C         145.4686  141.6494  163.4308 C.3     1  UNL1        0.1387
     17 N         145.0038  142.8100  162.6019 N.3     1  UNL1       -0.1733
     18 H         145.0682  142.5195  161.6263 H       1  UNL1        0.1492
     19 S         143.6250  143.3670  162.7978 S.O2    1  UNL1        0.0606
     20 O         143.1018  142.4451  161.7365 O.2     1  UNL1       -0.1530
     21 O         144.1481  144.2889  163.8590 O.2     1  UNL1       -0.1530
     22 C         142.2460  143.9241  162.9936 C.ar    1  UNL1        0.1220
     23 C         141.4901  143.6289  164.2551 C.ar    1  UNL1        0.0199
     24 C         140.1112  144.1860  164.4509 C.ar    1  UNL1        0.0014
     25 C         139.4884  145.0383  163.3853 C.ar    1  UNL1        0.0001
     26 C         140.2443  145.3336  162.1239 C.ar    1  UNL1        0.0014
     27 C         141.6232  144.7765  161.9280 C.ar    1  UNL1        0.0199
@<TRIPOS>BOND
     1    13    14    1
     2    14    15    1
     3    14    12    1
     4    12     1    1
     5     1     2   ar
     6     2     3   ar
     7     3    16    1
     8    16    17    1
     9    17    19    1
    10    19    20    2
    11    19    21    2
    12    19    22    1
    13    22    23   ar
    14    23    24   ar
    15    24    25   ar
    16    25    26   ar
    17    26    27   ar
    18     3     4   ar
    19     4     5   ar
    20     5     6    1
    21     6     7   ar
    22     7     8   ar
    23     8     9   ar
    24     9    10   ar
    25    10    11   ar
    26     5     1   ar
    27    11     6   ar
    28    27    22   ar
    29    17    18    1
@<TRIPOS>MOLECULE
*****
 27 29 0 0 0
SMALL
GASTEIGER

@<TRIPOS>ATOM
      1 C         139.1504  140.6543  164.8336 C.ar    1  UNL1        0.0617
      2 C         139.4193  139.6983  163.7094 C.ar    1  UNL1        0.0326
      3 C         140.3203  138.6163  164.2267 C.ar    1  UNL1        0.0977
      4 N         140.6082  138.9036  165.6705 N.ar    1  UNL1       -0.1683
      5 N         139.8852  140.1632  166.0456 N.ar    1  UNL1       -0.2340
      6 C         139.8951  140.8168  167.3956 C.ar    1  UNL1        0.0824
      7 C         140.5278  142.1654  167.5714 C.ar    1  UNL1        0.0191
      8 C         140.5378  142.8190  168.9214 C.ar    1  UNL1        0.0015
      9 C         139.9150  142.1240  170.0957 C.ar    1  UNL1        0.0001
     10 C         139.2823  140.7753  169.9201 C.ar    1  UNL1        0.0015
     11 C         139.2724  140.1218  168.5700 C.ar    1  UNL1        0.0191
     12 C         138.2966  141.8853  164.7589 C.3     1  UNL1        0.0459
     13 C         140.2979  143.3318  163.9513 C.3     1  UNL1        0.0004
     14 C         138.9339  143.2296  164.5669 C.3     1  UNL1        0.0059
     15 C         138.2072  144.4716  164.9905 C.3     1  UNL1        0.0004
     16 C         140.8419  137.4515  163.4385 C.3     1  UNL1        0.1387
     17 N         142.0752  137.6061  162.5988 N.3     1  UNL1       -0.1733
     18 H         141.8149  137.3567  161.6446 H       1  UNL1        0.1492
     19 S         142.7709  138.9329  162.5251 S.O2    1  UNL1        0.0606
     20 O         141.9966  139.2701  161.2856 O.2     1  UNL1       -0.1530
     21 O         143.5452  138.5957  163.7647 O.2     1  UNL1       -0.1530
     22 C         143.4667  140.2598  162.4515 C.ar    1  UNL1        0.1220
     23 C         142.8328  141.3989  161.7096 C.ar    1  UNL1        0.0199
     24 C         143.5285  142.7257  161.6361 C.ar    1  UNL1        0.0014
     25 C         144.8582  142.9134  162.3044 C.ar    1  UNL1        0.0001
     26 C         145.4922  141.7743  163.0463 C.ar    1  UNL1        0.0014
     27 C         144.7964  140.4475  163.1199 C.ar    1  UNL1        0.0199
@<TRIPOS>BOND
     1    13    14    1
     2    14    15    1
     3    14    12    1
     4    12     1    1
     5     1     2   ar
     6     2     3   ar
     7     3    16    1
     8    16    17    1
     9    17    19    1
    10    19    20    2
    11    19    21    2
    12    19    22    1
    13    22    23   ar
    14    23    24   ar
    15    24    25   ar
    16    25    26   ar
    17    26    27   ar
    18     3     4   ar
    19     4     5   ar
    20     5     6    1
    21     6     7   ar
    22     7     8   ar
    23     8     9   ar
    24     9    10   ar
    25    10    11   ar
    26     5     1   ar
    27    11     6   ar
    28    27    22   ar
    29    17    18    1
@<TRIPOS>MOLECULE
*****
 27 29 0 0 0
SMALL
GASTEIGER

@<TRIPOS>ATOM
      1 C         141.8572  142.9518  165.3910 C.ar    1  UNL1        0.0617
      2 C         141.6545  143.6895  164.1007 C.ar    1  UNL1        0.0326
      3 C         140.2288  144.1533  164.0511 C.ar    1  UNL1        0.0977
      4 N         139.5505  143.7023  165.3107 N.ar    1  UNL1       -0.1683
      5 N         140.5569  142.9597  166.1388 N.ar    1  UNL1       -0.2340
      6 C         140.3068  142.3348  167.4792 C.ar    1  UNL1        0.0824
      7 C         139.9015  140.8936  167.5710 C.ar    1  UNL1        0.0191
      8 C         139.6514  140.2687  168.9115 C.ar    1  UNL1        0.0015
      9 C         139.8067  141.0850  170.1602 C.ar    1  UNL1        0.0001
     10 C         140.2121  142.5263  170.0685 C.ar    1  UNL1        0.0015
     11 C         140.4621  143.1512  168.7280 C.ar    1  UNL1        0.0191
     12 C         143.1358  142.3176  165.8525 C.3     1  UNL1        0.0459
     13 C         144.6958  140.9546  164.2845 C.3     1  UNL1        0.0004
     14 C         143.5715  141.0030  165.2763 C.3     1  UNL1        0.0059
     15 C         142.8829  139.7368  165.6918 C.3     1  UNL1        0.0004
     16 C         139.5931  144.9316  162.9374 C.3     1  UNL1        0.1387
     17 N         138.7163  144.2339  161.9402 N.3     1  UNL1       -0.1733
     18 H         139.0830  144.4610  161.0159 H       1  UNL1        0.1492
     19 S         138.5626  142.7426  161.9905 S.O2    1  UNL1        0.0606
     20 O         137.3024  142.8995  162.7888 O.2     1  UNL1       -0.1530
     21 O         139.8228  142.5858  161.1922 O.2     1  UNL1       -0.1530
     22 C         138.4089  141.2513  162.0409 C.ar    1  UNL1        0.1220
     23 C         137.7805  140.5229  160.8901 C.ar    1  UNL1        0.0199
     24 C         137.6269  139.0316  160.9404 C.ar    1  UNL1        0.0014
     25 C         138.1016  138.2689  162.1416 C.ar    1  UNL1        0.0001
     26 C         138.7301  138.9973  163.2924 C.ar    1  UNL1        0.0014
     27 C         138.8837  140.4886  163.2420 C.ar    1  UNL1        0.0199
@<TRIPOS>BOND
     1    13    14    1
     2    14    15    1
     3    14    12    1
     4    12     1    1
     5     1     2   ar
     6     2     3   ar
     7     3    16    1
     8    16    17    1
     9    17    19    1
    10    19    20    2
    11    19    21    2
    12    19    22    1
    13    22    23   ar
    14    23    24   ar
    15    24    25   ar
    16    25    26   ar
    17    26    27   ar
    18     3     4   ar
    19     4     5   ar
    20     5     6    1
    21     6     7   ar
    22     7     8   ar
    23     8     9   ar
    24     9    10   ar
    25    10    11   ar
    26     5     1   ar
    27    11     6   ar
    28    27    22   ar
    29    17    18    1
