@<TRIPOS>MOLECULE
*****
 33 38 0 0 0
SMALL
GASTEIGER

@<TRIPOS>ATOM
      1 O         143.7747  139.3567  158.7098 O.2     1  UNL1       -0.2647
      2 C         142.5476  138.4977  158.6305 C.2     1  UNL1        0.3047
      3 N         141.3291  138.8548  159.4291 N.am    1  UNL1       -0.2647
      4 C         140.9720  139.9546  160.3847 C.3     1  UNL1        0.1391
      5 C         139.6059  139.3599  160.5585 C.3     1  UNL1        0.2052
      6 C         139.9630  138.2601  159.6030 C.3     1  UNL1        0.1391
      7 C         142.5389  137.2815  157.7525 C.ar    1  UNL1        0.3043
      8 N         141.6959  137.0845  156.5275 N.ar    1  UNL1       -0.1021
      9 N         142.0076  135.7301  155.9633 N.ar    1  UNL1       -0.1068
     10 C         143.0432  135.0901  156.8394 C.ar    1  UNL1        0.2501
     11 O         143.3716  136.0489  157.9452 O.2     1  UNL1       -0.4122
     12 C         143.6449  133.7299  156.6441 C.ar    1  UNL1        0.0551
     13 C         144.5205  133.1373  157.7082 C.ar    1  UNL1        0.0047
     14 C         145.1221  131.7772  157.5129 C.ar    1  UNL1        0.0002
     15 C         144.8483  131.0098  156.2535 C.ar    1  UNL1        0.0000
     16 C         143.9727  131.6024  155.1894 C.ar    1  UNL1        0.0002
     17 C         143.3711  132.9625  155.3848 C.ar    1  UNL1        0.0047
     18 O         138.3875  139.7170  161.3572 O.3     1  UNL1       -0.4756
     19 C         138.4043  139.5838  162.8511 C.ar    1  UNL1        0.1385
     20 C         138.8118  138.2862  163.4838 C.ar    1  UNL1        0.0366
     21 C         138.8287  138.1529  164.9777 C.ar    1  UNL1        0.0002
     22 C         138.4381  139.3173  165.8390 C.ar    1  UNL1       -0.0059
     23 C         138.0307  140.6148  165.2063 C.ar    1  UNL1        0.0002
     24 C         138.0137  140.7481  163.7124 C.ar    1  UNL1        0.0366
     25 C         138.4550  139.1840  167.3331 C.3     1  UNL1        0.0992
     26 N         139.3299  140.0822  168.1563 N.3     1  UNL1       -0.2687
     27 C         139.4826  140.3613  169.6222 C.3     1  UNL1        0.0761
     28 C         140.5672  141.3525  169.3205 C.3     1  UNL1        0.0592
     29 C         141.6146  142.2879  168.7933 C.3     1  UNL1        0.0372
     30 C         142.2431  142.9865  169.9625 C.3     1  UNL1        0.1423
     31 O         141.5841  142.4829  171.2123 O.3     1  UNL1       -0.3537
     32 C         140.5483  141.4730  170.8156 C.3     1  UNL1        0.1448
     33 C         140.4146  141.0735  167.8547 C.3     1  UNL1        0.0761
@<TRIPOS>BOND
     1     1     2    2
     2     2     7    1
     3     7     8   ar
     4     8     9   ar
     5     9    10   ar
     6    10    12    1
     7    12    13   ar
     8    13    14   ar
     9    14    15   ar
    10    15    16   ar
    11    16    17   ar
    12    10    11   ar
    13     2     3   am
    14     3     4    1
    15     4     5    1
    16     5    18    1
    17    18    19    1
    18    19    20   ar
    19    20    21   ar
    20    21    22   ar
    21    22    25    1
    22    25    26    1
    23    26    27    1
    24    27    28    1
    25    28    29    1
    26    29    30    1
    27    30    31    1
    28    31    32    1
    29    28    33    1
    30    22    23   ar
    31    23    24   ar
    32     5     6    1
    33    11     7   ar
    34     6     3    1
    35    17    12   ar
    36    24    19   ar
    37    33    26    1
    38    32    28    1
@<TRIPOS>MOLECULE
*****
 33 38 0 0 0
SMALL
GASTEIGER

@<TRIPOS>ATOM
      1 O         141.3526  140.5602  157.2388 O.2     1  UNL1       -0.2647
      2 C         142.4592  139.7488  157.8447 C.2     1  UNL1        0.3047
      3 N         143.1042  140.1965  159.1228 N.am    1  UNL1       -0.2647
      4 C         142.9200  141.3583  160.0537 C.3     1  UNL1        0.1391
      5 C         144.0163  140.8295  160.9305 C.3     1  UNL1        0.2052
      6 C         144.2005  139.6677  159.9996 C.3     1  UNL1        0.1391
      7 C         142.9209  138.4898  157.1726 C.ar    1  UNL1        0.3043
      8 N         144.0714  138.3712  156.2175 N.ar    1  UNL1       -0.1021
      9 N         144.1747  136.9365  155.7922 N.ar    1  UNL1       -0.1068
     10 C         143.0880  136.1685  156.4843 C.ar    1  UNL1        0.2501
     11 O         142.3131  137.1285  157.3374 O.2     1  UNL1       -0.4122
     12 C         142.8227  134.6984  156.3473 C.ar    1  UNL1        0.0551
     13 C         143.6726  133.7105  157.0901 C.ar    1  UNL1        0.0047
     14 C         143.4073  132.2405  156.9532 C.ar    1  UNL1        0.0002
     15 C         142.2921  131.7585  156.0734 C.ar    1  UNL1        0.0000
     16 C         141.4422  132.7463  155.3305 C.ar    1  UNL1        0.0002
     17 C         141.7075  134.2163  155.4675 C.ar    1  UNL1        0.0047
     18 O         144.6613  141.2772  162.2086 O.3     1  UNL1       -0.4756
     19 C         144.1929  140.7200  163.5202 C.ar    1  UNL1        0.1385
     20 C         144.8532  139.5027  164.0966 C.ar    1  UNL1        0.0366
     21 C         144.3849  138.9455  165.4081 C.ar    1  UNL1        0.0002
     22 C         143.2564  139.6057  166.1433 C.ar    1  UNL1       -0.0059
     23 C         142.5962  140.8230  165.5670 C.ar    1  UNL1        0.0002
     24 C         143.0644  141.3802  164.2554 C.ar    1  UNL1        0.0366
     25 C         142.7881  139.0485  167.4550 C.3     1  UNL1        0.0992
     26 N         142.1102  139.9427  168.4505 N.3     1  UNL1       -0.2687
     27 C         142.1805  140.1186  169.9385 C.3     1  UNL1        0.0761
     28 C         141.1517  141.2072  169.8584 C.3     1  UNL1        0.0592
     29 C         140.1244  142.2548  169.5465 C.3     1  UNL1        0.0372
     30 C         139.7200  142.9058  170.8360 C.3     1  UNL1        0.1423
     31 O         140.4973  142.2604  171.9448 O.3     1  UNL1       -0.3537
     32 C         141.3821  141.2106  171.3406 C.3     1  UNL1        0.1448
     33 C         141.0814  141.0313  168.3704 C.3     1  UNL1        0.0761
@<TRIPOS>BOND
     1     1     2    2
     2     2     7    1
     3     7     8   ar
     4     8     9   ar
     5     9    10   ar
     6    10    12    1
     7    12    13   ar
     8    13    14   ar
     9    14    15   ar
    10    15    16   ar
    11    16    17   ar
    12    10    11   ar
    13     2     3   am
    14     3     4    1
    15     4     5    1
    16     5    18    1
    17    18    19    1
    18    19    20   ar
    19    20    21   ar
    20    21    22   ar
    21    22    25    1
    22    25    26    1
    23    26    27    1
    24    27    28    1
    25    28    29    1
    26    29    30    1
    27    30    31    1
    28    31    32    1
    29    28    33    1
    30    22    23   ar
    31    23    24   ar
    32     5     6    1
    33    11     7   ar
    34     6     3    1
    35    17    12   ar
    36    24    19   ar
    37    33    26    1
    38    32    28    1
@<TRIPOS>MOLECULE
*****
 33 38 0 0 0
SMALL
GASTEIGER

@<TRIPOS>ATOM
      1 O         139.4825  142.3998  157.8121 O.2     1  UNL1       -0.2647
      2 C         138.9873  140.9856  157.8818 C.2     1  UNL1        0.3047
      3 N         139.6998  139.9829  158.7402 N.am    1  UNL1       -0.2647
      4 C         140.8988  140.0192  159.6408 C.3     1  UNL1        0.1391
      5 C         140.7075  138.5648  159.9542 C.3     1  UNL1        0.2052
      6 C         139.5084  138.5285  159.0536 C.3     1  UNL1        0.1391
      7 C         137.7796  140.5740  157.0930 C.ar    1  UNL1        0.3043
      8 N         137.7843  139.7534  155.8375 N.ar    1  UNL1       -0.1021
      9 N         136.3628  139.5830  155.3898 N.ar    1  UNL1       -0.1068
     10 C         135.4797  140.2984  156.3686 C.ar    1  UNL1        0.2501
     11 O         136.3553  140.9109  157.4213 O.2     1  UNL1       -0.4122
     12 C         133.9835  140.3859  156.3059 C.ar    1  UNL1        0.0551
     13 C         133.1439  139.5463  157.2225 C.ar    1  UNL1        0.0047
     14 C         131.6478  139.6339  157.1597 C.ar    1  UNL1        0.0002
     15 C         130.9912  140.5611  156.1803 C.ar    1  UNL1        0.0000
     16 C         131.8308  141.4007  155.2636 C.ar    1  UNL1        0.0002
     17 C         133.3269  141.3131  155.3264 C.ar    1  UNL1        0.0047
     18 O         141.4199  137.5620  160.8126 O.3     1  UNL1       -0.4756
     19 C         141.9101  137.9546  162.1749 C.ar    1  UNL1        0.1385
     20 C         143.0812  138.8818  162.3122 C.ar    1  UNL1        0.0366
     21 C         143.5713  139.2743  163.6743 C.ar    1  UNL1        0.0002
     22 C         142.8904  138.7397  164.8993 C.ar    1  UNL1       -0.0059
     23 C         141.7193  137.8125  164.7620 C.ar    1  UNL1        0.0002
     24 C         141.2291  137.4200  163.3998 C.ar    1  UNL1        0.0366
     25 C         143.3805  139.1323  166.2616 C.3     1  UNL1        0.0992
     26 N         142.3979  139.4535  167.3484 N.3     1  UNL1       -0.2687
     27 C         142.4122  139.3810  168.8466 C.3     1  UNL1        0.0761
     28 C         141.0082  139.9077  168.8855 C.3     1  UNL1        0.0592
     29 C         139.6193  140.4392  168.6894 C.3     1  UNL1        0.0372
     30 C         138.9947  140.6138  170.0420 C.3     1  UNL1        0.1423
     31 O         139.9975  140.1901  171.0739 O.3     1  UNL1       -0.3537
     32 C         141.2420  139.7538  170.3591 C.3     1  UNL1        0.1448
     33 C         140.9939  139.9802  167.3873 C.3     1  UNL1        0.0761
@<TRIPOS>BOND
     1     1     2    2
     2     2     7    1
     3     7     8   ar
     4     8     9   ar
     5     9    10   ar
     6    10    12    1
     7    12    13   ar
     8    13    14   ar
     9    14    15   ar
    10    15    16   ar
    11    16    17   ar
    12    10    11   ar
    13     2     3   am
    14     3     4    1
    15     4     5    1
    16     5    18    1
    17    18    19    1
    18    19    20   ar
    19    20    21   ar
    20    21    22   ar
    21    22    25    1
    22    25    26    1
    23    26    27    1
    24    27    28    1
    25    28    29    1
    26    29    30    1
    27    30    31    1
    28    31    32    1
    29    28    33    1
    30    22    23   ar
    31    23    24   ar
    32     5     6    1
    33    11     7   ar
    34     6     3    1
    35    17    12   ar
    36    24    19   ar
    37    33    26    1
    38    32    28    1
@<TRIPOS>MOLECULE
*****
 33 38 0 0 0
SMALL
GASTEIGER

@<TRIPOS>ATOM
      1 O         139.4013  139.9937  156.0526 O.2     1  UNL1       -0.2647
      2 C         139.8509  139.1781  157.2284 C.2     1  UNL1        0.3047
      3 N         139.1902  139.3584  158.5629 N.am    1  UNL1       -0.2647
      4 C         138.0861  140.2256  159.0913 C.3     1  UNL1        0.1391
      5 C         138.2557  139.6136  160.4502 C.3     1  UNL1        0.2052
      6 C         139.3598  138.7464  159.9219 C.3     1  UNL1        0.1391
      7 C         140.9613  138.1820  157.0698 C.ar    1  UNL1        0.3043
      8 N         142.4030  138.4063  157.4176 N.ar    1  UNL1       -0.1021
      9 N         143.1576  137.1498  157.0984 N.ar    1  UNL1       -0.1068
     10 C         142.1823  136.1492  156.5534 C.ar    1  UNL1        0.2501
     11 O         140.8248  136.7871  156.5357 O.2     1  UNL1       -0.4122
     12 C         142.5073  134.7551  156.1047 C.ar    1  UNL1        0.0551
     13 C         141.5166  133.9802  155.2873 C.ar    1  UNL1        0.0047
     14 C         141.8416  132.5863  154.8387 C.ar    1  UNL1        0.0002
     15 C         143.1573  131.9672  155.2075 C.ar    1  UNL1        0.0000
     16 C         144.1479  132.7422  156.0248 C.ar    1  UNL1        0.0002
     17 C         143.8229  134.1361  156.4734 C.ar    1  UNL1        0.0047
     18 O         137.5950  139.7939  161.7847 O.3     1  UNL1       -0.4756
     19 C         138.2440  140.6474  162.8337 C.ar    1  UNL1        0.1385
     20 C         139.6370  140.3381  163.2959 C.ar    1  UNL1        0.0366
     21 C         140.2861  141.1915  164.3448 C.ar    1  UNL1        0.0002
     22 C         139.5421  142.3543  164.9315 C.ar    1  UNL1       -0.0059
     23 C         138.1490  142.6637  164.4693 C.ar    1  UNL1        0.0002
     24 C         137.4999  141.8102  163.4204 C.ar    1  UNL1        0.0366
     25 C         140.1911  143.2079  165.9806 C.3     1  UNL1        0.0992
     26 N         140.3128  142.7037  167.3880 N.3     1  UNL1       -0.2687
     27 C         140.3076  143.3394  168.7466 C.3     1  UNL1        0.0761
     28 C         140.4848  141.9906  169.3785 C.3     1  UNL1        0.0592
     29 C         140.6606  140.5589  169.7901 C.3     1  UNL1        0.0372
     30 C         140.7364  140.5131  171.2874 C.3     1  UNL1        0.1423
     31 O         140.6074  141.9165  171.8013 O.3     1  UNL1       -0.3537
     32 C         140.4519  142.8296  170.6215 C.3     1  UNL1        0.1448
     33 C         140.4899  141.3548  168.0199 C.3     1  UNL1        0.0761
@<TRIPOS>BOND
     1     1     2    2
     2     2     7    1
     3     7     8   ar
     4     8     9   ar
     5     9    10   ar
     6    10    12    1
     7    12    13   ar
     8    13    14   ar
     9    14    15   ar
    10    15    16   ar
    11    16    17   ar
    12    10    11   ar
    13     2     3   am
    14     3     4    1
    15     4     5    1
    16     5    18    1
    17    18    19    1
    18    19    20   ar
    19    20    21   ar
    20    21    22   ar
    21    22    25    1
    22    25    26    1
    23    26    27    1
    24    27    28    1
    25    28    29    1
    26    29    30    1
    27    30    31    1
    28    31    32    1
    29    28    33    1
    30    22    23   ar
    31    23    24   ar
    32     5     6    1
    33    11     7   ar
    34     6     3    1
    35    17    12   ar
    36    24    19   ar
    37    33    26    1
    38    32    28    1
@<TRIPOS>MOLECULE
*****
 33 38 0 0 0
SMALL
GASTEIGER

@<TRIPOS>ATOM
      1 O         140.0247  142.3389  157.0417 O.2     1  UNL1       -0.2647
      2 C         139.1864  141.1520  157.4136 C.2     1  UNL1        0.3047
      3 N         139.6135  140.2546  158.5371 N.am    1  UNL1       -0.2647
      4 C         140.7744  140.2228  159.4865 C.3     1  UNL1        0.1391
      5 C         140.2175  138.9854  160.1260 C.3     1  UNL1        0.2052
      6 C         139.0566  139.0172  159.1766 C.3     1  UNL1        0.1391
      7 C         137.9209  140.8623  156.6620 C.ar    1  UNL1        0.3043
      8 N         137.8210  140.5030  155.2092 N.ar    1  UNL1       -0.1021
      9 N         136.3716  140.2998  154.8806 N.ar    1  UNL1       -0.1068
     10 C         135.5758  140.5335  156.1304 C.ar    1  UNL1        0.2501
     11 O         136.5334  140.8812  157.2314 O.2     1  UNL1       -0.4122
     12 C         134.0842  140.4365  156.2570 C.ar    1  UNL1        0.0551
     13 C         133.4756  139.4845  157.2434 C.ar    1  UNL1        0.0047
     14 C         131.9841  139.3876  157.3700 C.ar    1  UNL1        0.0002
     15 C         131.1012  140.2428  156.5101 C.ar    1  UNL1        0.0000
     16 C         131.7099  141.1948  155.5237 C.ar    1  UNL1        0.0002
     17 C         133.2014  141.2917  155.3971 C.ar    1  UNL1        0.0047
     18 O         140.6446  138.0880  161.2495 O.3     1  UNL1       -0.4756
     19 C         140.1227  138.3221  162.6362 C.ar    1  UNL1        0.1385
     20 C         139.0164  139.3089  162.8645 C.ar    1  UNL1        0.0366
     21 C         138.4944  139.5430  164.2510 C.ar    1  UNL1        0.0002
     22 C         139.0788  138.7902  165.4094 C.ar    1  UNL1       -0.0059
     23 C         140.1851  137.8033  165.1811 C.ar    1  UNL1        0.0002
     24 C         140.7071  137.5692  163.7945 C.ar    1  UNL1        0.0366
     25 C         138.5568  139.0243  166.7961 C.3     1  UNL1        0.0992
     26 N         139.2420  140.0062  167.6996 N.3     1  UNL1       -0.2687
     27 C         139.2664  140.2475  169.1798 C.3     1  UNL1        0.0761
     28 C         140.2110  141.3949  168.9773 C.3     1  UNL1        0.0592
     29 C         141.1402  142.4905  168.5456 C.3     1  UNL1        0.0372
     30 C         141.5907  143.2264  169.7726 C.3     1  UNL1        0.1423
     31 O         140.9400  142.5856  170.9626 O.3     1  UNL1       -0.3537
     32 C         140.0873  141.4537  170.4710 C.3     1  UNL1        0.1448
     33 C         140.1866  141.1537  167.4970 C.3     1  UNL1        0.0761
@<TRIPOS>BOND
     1     1     2    2
     2     2     7    1
     3     7     8   ar
     4     8     9   ar
     5     9    10   ar
     6    10    12    1
     7    12    13   ar
     8    13    14   ar
     9    14    15   ar
    10    15    16   ar
    11    16    17   ar
    12    10    11   ar
    13     2     3   am
    14     3     4    1
    15     4     5    1
    16     5    18    1
    17    18    19    1
    18    19    20   ar
    19    20    21   ar
    20    21    22   ar
    21    22    25    1
    22    25    26    1
    23    26    27    1
    24    27    28    1
    25    28    29    1
    26    29    30    1
    27    30    31    1
    28    31    32    1
    29    28    33    1
    30    22    23   ar
    31    23    24   ar
    32     5     6    1
    33    11     7   ar
    34     6     3    1
    35    17    12   ar
    36    24    19   ar
    37    33    26    1
    38    32    28    1
@<TRIPOS>MOLECULE
*****
 33 38 0 0 0
SMALL
GASTEIGER

@<TRIPOS>ATOM
      1 O         143.7020  138.5386  156.8460 O.2     1  UNL1       -0.2647
      2 C         142.4175  137.7840  157.0210 C.2     1  UNL1        0.3047
      3 N         141.3165  138.3618  157.8600 N.am    1  UNL1       -0.2647
      4 C         141.1373  139.6225  158.6529 C.3     1  UNL1        0.1391
      5 C         139.7594  139.1791  159.0466 C.3     1  UNL1        0.2052
      6 C         139.9386  137.9184  158.2536 C.3     1  UNL1        0.1391
      7 C         142.2339  136.4515  156.3570 C.ar    1  UNL1        0.3043
      8 N         141.0205  136.0053  155.5963 N.ar    1  UNL1       -0.1021
      9 N         141.2681  134.6094  155.1063 N.ar    1  UNL1       -0.1068
     10 C         142.6344  134.1930  155.5640 C.ar    1  UNL1        0.2501
     11 O         143.2313  135.3315  156.3370 O.2     1  UNL1       -0.4122
     12 C         143.2890  132.8702  155.2959 C.ar    1  UNL1        0.0551
     13 C         142.9327  132.0932  154.0633 C.ar    1  UNL1        0.0047
     14 C         143.5873  130.7704  153.7953 C.ar    1  UNL1        0.0002
     15 C         144.5982  130.2247  154.7598 C.ar    1  UNL1        0.0000
     16 C         144.9544  131.0017  155.9924 C.ar    1  UNL1        0.0002
     17 C         144.2999  132.3244  156.2605 C.ar    1  UNL1        0.0047
     18 O         138.6585  139.7569  159.8856 O.3     1  UNL1       -0.4756
     19 C         138.6198  139.4881  161.3608 C.ar    1  UNL1        0.1385
     20 C         138.0650  140.5205  162.2969 C.ar    1  UNL1        0.0366
     21 C         138.0263  140.2518  163.7721 C.ar    1  UNL1        0.0002
     22 C         138.5424  138.9506  164.3112 C.ar    1  UNL1       -0.0059
     23 C         139.0972  137.9182  163.3750 C.ar    1  UNL1        0.0002
     24 C         139.1359  138.1869  161.8998 C.ar    1  UNL1        0.0366
     25 C         138.5037  138.6818  165.7865 C.3     1  UNL1        0.0992
     26 N         139.1063  139.6665  166.7442 N.3     1  UNL1       -0.2687
     27 C         139.9429  140.9039  166.6069 C.3     1  UNL1        0.0761
     28 C         139.9585  141.0590  168.0987 C.3     1  UNL1        0.0592
     29 C         139.8429  141.0187  169.5937 C.3     1  UNL1        0.0372
     30 C         140.5954  142.1916  170.1486 C.3     1  UNL1        0.1423
     31 O         141.1760  142.9569  168.9965 O.3     1  UNL1       -0.3537
     32 C         140.7824  142.2569  167.7296 C.3     1  UNL1        0.1448
     33 C         139.1218  139.8216  168.2361 C.3     1  UNL1        0.0761
@<TRIPOS>BOND
     1     1     2    2
     2     2     7    1
     3     7     8   ar
     4     8     9   ar
     5     9    10   ar
     6    10    12    1
     7    12    13   ar
     8    13    14   ar
     9    14    15   ar
    10    15    16   ar
    11    16    17   ar
    12    10    11   ar
    13     2     3   am
    14     3     4    1
    15     4     5    1
    16     5    18    1
    17    18    19    1
    18    19    20   ar
    19    20    21   ar
    20    21    22   ar
    21    22    25    1
    22    25    26    1
    23    26    27    1
    24    27    28    1
    25    28    29    1
    26    29    30    1
    27    30    31    1
    28    31    32    1
    29    28    33    1
    30    22    23   ar
    31    23    24   ar
    32     5     6    1
    33    11     7   ar
    34     6     3    1
    35    17    12   ar
    36    24    19   ar
    37    33    26    1
    38    32    28    1
@<TRIPOS>MOLECULE
*****
 33 38 0 0 0
SMALL
GASTEIGER

@<TRIPOS>ATOM
      1 O         139.9171  137.5954  157.0607 O.2     1  UNL1       -0.2647
      2 C         141.3616  137.6109  157.4647 C.2     1  UNL1        0.3047
      3 N         141.8285  138.5421  158.5439 N.am    1  UNL1       -0.2647
      4 C         141.1700  139.5680  159.4179 C.3     1  UNL1        0.1391
      5 C         142.4890  139.8590  160.0703 C.3     1  UNL1        0.2052
      6 C         143.1476  138.8330  159.1963 C.3     1  UNL1        0.1391
      7 C         142.3391  136.6952  156.7894 C.ar    1  UNL1        0.3043
      8 N         143.6532  137.0973  156.1881 N.ar    1  UNL1       -0.1021
      9 N         144.3005  135.8674  155.6240 N.ar    1  UNL1       -0.1068
     10 C         143.3865  134.7053  155.8765 C.ar    1  UNL1        0.2501
     11 O         142.1743  135.2169  156.5968 O.2     1  UNL1       -0.4122
     12 C         143.6401  133.2813  155.4787 C.ar    1  UNL1        0.0551
     13 C         142.9247  132.6935  154.2986 C.ar    1  UNL1        0.0047
     14 C         143.1784  131.2697  153.9008 C.ar    1  UNL1        0.0002
     15 C         144.1474  130.4336  154.6830 C.ar    1  UNL1        0.0000
     16 C         144.8628  131.0214  155.8631 C.ar    1  UNL1        0.0002
     17 C         144.6092  132.4453  156.2609 C.ar    1  UNL1        0.0047
     18 O         142.9560  140.7901  161.1496 O.3     1  UNL1       -0.4756
     19 C         142.9376  140.3467  162.5824 C.ar    1  UNL1        0.1385
     20 C         144.2249  140.1961  163.3374 C.ar    1  UNL1        0.0366
     21 C         144.2066  139.7527  164.7703 C.ar    1  UNL1        0.0002
     22 C         142.9009  139.4600  165.4481 C.ar    1  UNL1       -0.0059
     23 C         141.6136  139.6106  164.6931 C.ar    1  UNL1        0.0002
     24 C         141.6319  140.0540  163.2602 C.ar    1  UNL1        0.0366
     25 C         142.8826  139.0165  166.8810 C.3     1  UNL1        0.0992
     26 N         142.1797  139.8466  167.9140 N.3     1  UNL1       -0.2687
     27 C         141.8632  139.6821  169.3710 C.3     1  UNL1        0.0761
     28 C         141.1857  141.0204  169.3749 C.3     1  UNL1        0.0592
     29 C         140.5662  142.3680  169.1508 C.3     1  UNL1        0.0372
     30 C         139.9766  142.8289  170.4507 C.3     1  UNL1        0.1423
     31 O         140.2318  141.7663  171.4782 O.3     1  UNL1       -0.3537
     32 C         140.9791  140.6486  170.8133 C.3     1  UNL1        0.1448
     33 C         141.5023  141.1849  167.9179 C.3     1  UNL1        0.0761
@<TRIPOS>BOND
     1     1     2    2
     2     2     7    1
     3     7     8   ar
     4     8     9   ar
     5     9    10   ar
     6    10    12    1
     7    12    13   ar
     8    13    14   ar
     9    14    15   ar
    10    15    16   ar
    11    16    17   ar
    12    10    11   ar
    13     2     3   am
    14     3     4    1
    15     4     5    1
    16     5    18    1
    17    18    19    1
    18    19    20   ar
    19    20    21   ar
    20    21    22   ar
    21    22    25    1
    22    25    26    1
    23    26    27    1
    24    27    28    1
    25    28    29    1
    26    29    30    1
    27    30    31    1
    28    31    32    1
    29    28    33    1
    30    22    23   ar
    31    23    24   ar
    32     5     6    1
    33    11     7   ar
    34     6     3    1
    35    17    12   ar
    36    24    19   ar
    37    33    26    1
    38    32    28    1
@<TRIPOS>MOLECULE
*****
 33 38 0 0 0
SMALL
GASTEIGER

@<TRIPOS>ATOM
      1 O         145.7937  141.1984  163.6158 O.2     1  UNL1       -0.2647
      2 C         144.3398  140.8295  163.6081 C.2     1  UNL1        0.3047
      3 N         143.5743  140.8240  162.3181 N.am    1  UNL1       -0.2647
      4 C         143.9077  141.1193  160.8857 C.3     1  UNL1        0.1391
      5 C         142.4918  140.8164  160.4938 C.3     1  UNL1        0.2052
      6 C         142.1584  140.5212  161.9262 C.3     1  UNL1        0.1391
      7 C         143.6513  140.4659  164.8902 C.ar    1  UNL1        0.3043
      8 N         143.6675  139.1179  165.5481 N.ar    1  UNL1       -0.1021
      9 N         142.8520  139.2054  166.8040 N.ar    1  UNL1       -0.1068
     10 C         142.3319  140.6073  166.9223 C.ar    1  UNL1        0.2501
     11 O         142.8259  141.3863  165.7395 O.2     1  UNL1       -0.4122
     12 C         141.4692  141.1372  168.0291 C.ar    1  UNL1        0.0551
     13 C         141.7549  142.4845  168.6233 C.ar    1  UNL1        0.0047
     14 C         140.8922  143.0144  169.7301 C.ar    1  UNL1        0.0002
     15 C         139.7438  142.1969  170.2427 C.ar    1  UNL1        0.0000
     16 C         139.4580  140.8496  169.6485 C.ar    1  UNL1        0.0002
     17 C         140.3207  140.3197  168.5418 C.ar    1  UNL1        0.0047
     18 O         141.7263  140.8110  159.2038 O.3     1  UNL1       -0.4756
     19 C         141.6983  139.5756  158.3535 C.ar    1  UNL1        0.1385
     20 C         140.4109  138.8326  158.1523 C.ar    1  UNL1        0.0366
     21 C         140.3828  137.5973  157.3020 C.ar    1  UNL1        0.0002
     22 C         141.6423  137.1049  156.6529 C.ar    1  UNL1       -0.0059
     23 C         142.9297  137.8479  156.8541 C.ar    1  UNL1        0.0002
     24 C         142.9578  139.0832  157.7044 C.ar    1  UNL1        0.0366
     25 C         141.6143  135.8694  155.8025 C.3     1  UNL1        0.0992
     26 N         142.3361  134.6335  156.2514 N.3     1  UNL1       -0.2687
     27 C         143.5500  134.3593  157.0888 C.3     1  UNL1        0.0761
     28 C         143.3570  132.8857  156.8861 C.3     1  UNL1        0.0592
     29 C         142.9764  131.4731  156.5549 C.3     1  UNL1        0.0372
     30 C         143.9704  130.5598  157.2091 C.3     1  UNL1        0.1423
     31 O         144.9652  131.4079  157.9445 O.3     1  UNL1       -0.3537
     32 C         144.5861  132.8454  157.7449 C.3     1  UNL1        0.1448
     33 C         142.1431  133.1599  156.0487 C.3     1  UNL1        0.0761
@<TRIPOS>BOND
     1     1     2    2
     2     2     7    1
     3     7     8   ar
     4     8     9   ar
     5     9    10   ar
     6    10    12    1
     7    12    13   ar
     8    13    14   ar
     9    14    15   ar
    10    15    16   ar
    11    16    17   ar
    12    10    11   ar
    13     2     3   am
    14     3     4    1
    15     4     5    1
    16     5    18    1
    17    18    19    1
    18    19    20   ar
    19    20    21   ar
    20    21    22   ar
    21    22    25    1
    22    25    26    1
    23    26    27    1
    24    27    28    1
    25    28    29    1
    26    29    30    1
    27    30    31    1
    28    31    32    1
    29    28    33    1
    30    22    23   ar
    31    23    24   ar
    32     5     6    1
    33    11     7   ar
    34     6     3    1
    35    17    12   ar
    36    24    19   ar
    37    33    26    1
    38    32    28    1
@<TRIPOS>MOLECULE
*****
 33 38 0 0 0
SMALL
GASTEIGER

@<TRIPOS>ATOM
      1 O         141.1928  136.9584  162.8108 O.2     1  UNL1       -0.2647
      2 C         140.5403  138.3085  162.8510 C.2     1  UNL1        0.3047
      3 N         140.5296  139.1730  161.6252 N.am    1  UNL1       -0.2647
      4 C         141.0504  139.0350  160.2253 C.3     1  UNL1        0.1391
      5 C         140.5144  140.3957  159.8917 C.3     1  UNL1        0.2052
      6 C         139.9936  140.5337  161.2917 C.3     1  UNL1        0.1391
      7 C         139.8985  138.7940  164.1168 C.ar    1  UNL1        0.3043
      8 N         138.5096  138.4700  164.5816 N.ar    1  UNL1       -0.1021
      9 N         138.2856  139.1645  165.8921 N.ar    1  UNL1       -0.1068
     10 C         139.5359  139.9177  166.2372 C.ar    1  UNL1        0.2501
     11 O         140.5328  139.6888  165.1400 O.2     1  UNL1       -0.4122
     12 C         139.7517  140.7534  167.4642 C.ar    1  UNL1        0.0551
     13 C         140.3945  142.1037  167.3485 C.ar    1  UNL1        0.0047
     14 C         140.6102  142.9392  168.5754 C.ar    1  UNL1        0.0002
     15 C         140.1830  142.4244  169.9180 C.ar    1  UNL1        0.0000
     16 C         139.5402  141.0741  170.0337 C.ar    1  UNL1        0.0002
     17 C         139.3245  140.2386  168.8068 C.ar    1  UNL1        0.0047
     18 O         140.5036  141.2603  158.6660 O.3     1  UNL1       -0.4756
     19 C         139.2674  141.3481  157.8210 C.ar    1  UNL1        0.1385
     20 C         138.7720  140.1365  157.0886 C.ar    1  UNL1        0.0366
     21 C         137.5358  140.2242  156.2435 C.ar    1  UNL1        0.0002
     22 C         136.7950  141.5237  156.1310 C.ar    1  UNL1       -0.0059
     23 C         137.2905  142.7353  156.8634 C.ar    1  UNL1        0.0002
     24 C         138.5266  142.6476  157.7084 C.ar    1  UNL1        0.0366
     25 C         135.5587  141.6115  155.2859 C.3     1  UNL1        0.0992
     26 N         134.2692  141.0259  155.7802 N.3     1  UNL1       -0.2687
     27 C         133.8992  139.9007  156.7005 C.3     1  UNL1        0.0761
     28 C         132.4456  140.1978  156.4793 C.3     1  UNL1        0.0592
     29 C         131.0679  140.6672  156.1168 C.3     1  UNL1        0.0372
     30 C         130.0783  139.7995  156.8363 C.3     1  UNL1        0.1423
     31 O         130.8445  138.7938  157.6435 O.3     1  UNL1       -0.3537
     32 C         132.3076  139.0399  157.4229 C.3     1  UNL1        0.1448
     33 C         132.8157  141.3230  155.5590 C.3     1  UNL1        0.0761
@<TRIPOS>BOND
     1     1     2    2
     2     2     7    1
     3     7     8   ar
     4     8     9   ar
     5     9    10   ar
     6    10    12    1
     7    12    13   ar
     8    13    14   ar
     9    14    15   ar
    10    15    16   ar
    11    16    17   ar
    12    10    11   ar
    13     2     3   am
    14     3     4    1
    15     4     5    1
    16     5    18    1
    17    18    19    1
    18    19    20   ar
    19    20    21   ar
    20    21    22   ar
    21    22    25    1
    22    25    26    1
    23    26    27    1
    24    27    28    1
    25    28    29    1
    26    29    30    1
    27    30    31    1
    28    31    32    1
    29    28    33    1
    30    22    23   ar
    31    23    24   ar
    32     5     6    1
    33    11     7   ar
    34     6     3    1
    35    17    12   ar
    36    24    19   ar
    37    33    26    1
    38    32    28    1
