@<TRIPOS>MOLECULE
*****
 36 41 0 0 0
SMALL
GASTEIGER

@<TRIPOS>ATOM
      1 C         140.1292  144.0172  157.0655 C.2     1  UNL1        0.0968
      2 C         140.7805  144.9367  156.0754 C.2     1  UNL1        0.0952
      3 BR        140.3734  144.8945  154.6322 Br      1  UNL1       -0.0439
      4 C         141.8386  145.8984  156.5283 C.2     1  UNL1        0.2434
      5 N         142.2457  145.9407  157.9715 N.2     1  UNL1       -0.0297
      6 C         141.5945  145.0211  158.9616 C.2     1  UNL1        0.4105
      7 N         141.7874  144.8366  160.4376 N.2     1  UNL1        0.0120
      8 C         140.8484  143.7608  160.8969 C.2     1  UNL1        0.3751
      9 N         140.0751  143.2804  159.7047 N.2     1  UNL1       -0.0450
     10 C         140.5362  144.0594  158.5086 C.3     1  UNL1        0.3605
     11 N         136.9546  141.1318  155.7064 N.3     1  UNL1       -0.2646
     12 C         138.3356  140.6357  156.0174 C.3     1  UNL1        0.0941
     13 C         139.3938  141.5974  156.4704 C.3     1  UNL1        0.1080
     14 N         139.0710  143.0554  156.6124 N.pl3   1  UNL1       -0.3037
     15 C         137.6901  143.5516  156.3014 C.3     1  UNL1        0.1080
     16 C         136.6319  142.5898  155.8484 C.3     1  UNL1        0.0941
     17 C         135.8965  140.1701  155.2534 C.3     1  UNL1        0.1222
     18 C         130.7698  141.3798  155.6212 C.3     1  UNL1        0.0754
     19 C         132.1381  140.8547  155.9405 C.ar    1  UNL1        0.1546
     20 C         133.3482  140.9538  155.0596 C.ar    1  UNL1        0.0550
     21 C         134.4946  140.2988  155.7714 C.ar    1  UNL1        0.1165
     22 N         133.9930  139.7949  157.0923 N.ar    1  UNL1       -0.0803
     23 O         132.5367  140.1385  157.1967 O.2     1  UNL1       -0.3580
     24 C         140.7074  143.2542  162.3017 C.ar    1  UNL1        0.0882
     25 C         140.7499  141.7800  162.5752 C.ar    1  UNL1        0.0089
     26 C         140.6089  141.2735  163.9801 C.ar    1  UNL1        0.0148
     27 C         140.4253  142.2412  165.1114 C.ar    1  UNL1        0.0479
     28 C         140.3828  143.7154  164.8379 C.ar    1  UNL1        0.0148
     29 C         140.5238  144.2219  163.4330 C.ar    1  UNL1        0.0089
     30 N         140.2843  141.7346  166.5162 N.pl3   1  UNL1       -0.3046
     31 C         140.8281  142.5370  167.6610 C.3     1  UNL1        0.1081
     32 C         140.6871  142.0304  169.0658 C.3     1  UNL1        0.0938
     33 N         140.0022  140.7214  169.3258 N.3     1  UNL1       -0.2686
     34 C         139.8612  140.2148  170.7306 C.3     1  UNL1        0.0897
     35 C         139.4585  139.9191  168.1810 C.3     1  UNL1        0.0938
     36 C         139.5995  140.4256  166.7762 C.3     1  UNL1        0.1081
@<TRIPOS>BOND
     1    18    19    1
     2    19    20   ar
     3    20    21   ar
     4    21    17    1
     5    17    11    1
     6    11    12    1
     7    12    13    1
     8    13    14    1
     9    14     1    1
    10     1     2    2
    11     2     3    1
    12     2     4    1
    13     4     5    2
    14     5     6    1
    15     6     7    2
    16     7     8    1
    17     8    24    1
    18    24    25   ar
    19    25    26   ar
    20    26    27   ar
    21    27    30    1
    22    30    31    1
    23    31    32    1
    24    32    33    1
    25    33    34    1
    26    33    35    1
    27    35    36    1
    28    27    28   ar
    29    28    29   ar
    30     8     9    2
    31     9    10    1
    32    14    15    1
    33    15    16    1
    34    21    22   ar
    35    22    23   ar
    36    23    19   ar
    37    16    11    1
    38    10     1    1
    39    10     6    1
    40    29    24   ar
    41    36    30    1
@<TRIPOS>MOLECULE
*****
 36 41 0 0 0
SMALL
GASTEIGER

@<TRIPOS>ATOM
      1 C         143.4112  140.3908  160.0655 C.2     1  UNL1        0.0968
      2 C         143.8897  141.7961  159.8505 C.2     1  UNL1        0.0952
      3 BR        143.9771  142.7441  161.0097 Br      1  UNL1       -0.0439
      4 C         144.2807  142.2532  158.4766 C.2     1  UNL1        0.2434
      5 N         144.1933  141.3052  157.3174 N.2     1  UNL1       -0.0297
      6 C         143.7148  139.8999  157.5324 C.2     1  UNL1        0.4105
      7 N         143.5248  138.7490  156.5893 N.2     1  UNL1        0.0120
      8 C         143.0164  137.5805  157.3806 C.2     1  UNL1        0.3751
      9 N         142.8921  138.0092  158.8126 N.2     1  UNL1       -0.0450
     10 C         143.3237  139.4427  158.9064 C.3     1  UNL1        0.3605
     11 N         142.2379  139.0193  164.1878 N.3     1  UNL1       -0.2646
     12 C         141.2023  139.5875  163.2632 C.3     1  UNL1        0.0941
     13 C         141.5933  140.0447  161.8893 C.3     1  UNL1        0.1080
     14 N         143.0201  139.9336  161.4396 N.pl3   1  UNL1       -0.3037
     15 C         144.0557  139.3654  162.3640 C.3     1  UNL1        0.1080
     16 C         143.6646  138.9082  163.7381 C.3     1  UNL1        0.0941
     17 C         141.8468  138.5621  165.5617 C.3     1  UNL1        0.1222
     18 C         142.2999  142.5865  168.9501 C.3     1  UNL1        0.0754
     19 C         142.4298  141.2325  168.3177 C.ar    1  UNL1        0.1546
     20 C         141.8458  140.8149  167.0005 C.ar    1  UNL1        0.0550
     21 C         142.2215  139.3828  166.7602 C.ar    1  UNL1        0.1165
     22 N         143.0375  138.9152  167.9288 N.ar    1  UNL1       -0.0803
     23 O         143.1662  140.0584  168.8913 O.2     1  UNL1       -0.3580
     24 C         142.6896  136.2218  156.8355 C.ar    1  UNL1        0.0882
     25 C         141.6444  136.0726  155.7701 C.ar    1  UNL1        0.0089
     26 C         141.3176  134.7138  155.2250 C.ar    1  UNL1        0.0148
     27 C         142.0361  133.5043  155.7454 C.ar    1  UNL1        0.0479
     28 C         143.0814  133.6535  156.8108 C.ar    1  UNL1        0.0148
     29 C         143.4081  135.0122  157.3559 C.ar    1  UNL1        0.0089
     30 N         141.7093  132.1455  155.2003 N.pl3   1  UNL1       -0.3046
     31 C         140.8473  132.0145  153.9798 C.3     1  UNL1        0.1081
     32 C         140.5205  130.6558  153.4347 C.3     1  UNL1        0.0938
     33 N         141.0559  129.4281  154.1103 N.3     1  UNL1       -0.2686
     34 C         140.7291  128.0694  153.5652 C.3     1  UNL1        0.0897
     35 C         141.9179  129.5592  155.3307 C.3     1  UNL1        0.0938
     36 C         142.2447  130.9179  155.8758 C.3     1  UNL1        0.1081
@<TRIPOS>BOND
     1    18    19    1
     2    19    20   ar
     3    20    21   ar
     4    21    17    1
     5    17    11    1
     6    11    12    1
     7    12    13    1
     8    13    14    1
     9    14     1    1
    10     1     2    2
    11     2     3    1
    12     2     4    1
    13     4     5    2
    14     5     6    1
    15     6     7    2
    16     7     8    1
    17     8    24    1
    18    24    25   ar
    19    25    26   ar
    20    26    27   ar
    21    27    30    1
    22    30    31    1
    23    31    32    1
    24    32    33    1
    25    33    34    1
    26    33    35    1
    27    35    36    1
    28    27    28   ar
    29    28    29   ar
    30     8     9    2
    31     9    10    1
    32    14    15    1
    33    15    16    1
    34    21    22   ar
    35    22    23   ar
    36    23    19   ar
    37    16    11    1
    38    10     1    1
    39    10     6    1
    40    29    24   ar
    41    36    30    1
@<TRIPOS>MOLECULE
*****
 36 41 0 0 0
SMALL
GASTEIGER

@<TRIPOS>ATOM
      1 C         142.2852  140.3437  161.0296 C.2     1  UNL1        0.0968
      2 C         142.9346  141.6853  161.1973 C.2     1  UNL1        0.0952
      3 BR        142.6447  142.5119  162.4151 Br      1  UNL1       -0.0439
      4 C         143.8739  142.2004  160.1474 C.2     1  UNL1        0.2434
      5 N         144.1638  141.3738  158.9297 N.2     1  UNL1       -0.0297
      6 C         143.5143  140.0322  158.7620 C.2     1  UNL1        0.4105
      7 N         143.6071  139.0008  157.6768 N.2     1  UNL1        0.0120
      8 C         142.7252  137.8483  158.0561 C.2     1  UNL1        0.3751
      9 N         142.0873  138.1673  159.3757 N.2     1  UNL1       -0.0450
     10 C         142.5750  139.5171  159.8120 C.3     1  UNL1        0.3605
     11 N         139.4672  138.7985  164.1795 N.3     1  UNL1       -0.2646
     12 C         138.9803  139.7775  163.1526 C.3     1  UNL1        0.0941
     13 C         139.9195  140.2925  162.1027 C.3     1  UNL1        0.1080
     14 N         141.3459  139.8286  162.0796 N.pl3   1  UNL1       -0.3037
     15 C         141.8329  138.8496  163.1065 C.3     1  UNL1        0.1080
     16 C         140.8935  138.3346  164.1565 C.3     1  UNL1        0.0941
     17 C         138.5280  138.2834  165.2294 C.3     1  UNL1        0.1222
     18 C         140.0495  140.9881  169.5016 C.3     1  UNL1        0.0754
     19 C         139.2820  140.0814  168.5857 C.ar    1  UNL1        0.1546
     20 C         139.6104  139.7945  167.1505 C.ar    1  UNL1        0.0550
     21 C         138.5826  138.8383  166.6221 C.ar    1  UNL1        0.1165
     22 N         137.6190  138.5341  167.7307 N.ar    1  UNL1       -0.0803
     23 O         138.0513  139.3024  168.9443 O.2     1  UNL1       -0.3580
     24 C         142.5176  136.5964  157.2562 C.ar    1  UNL1        0.0882
     25 C         143.3487  135.3799  157.5379 C.ar    1  UNL1        0.0089
     26 C         143.1410  134.1281  156.7380 C.ar    1  UNL1        0.0148
     27 C         142.1023  134.0927  155.6565 C.ar    1  UNL1        0.0479
     28 C         141.2711  135.3092  155.3748 C.ar    1  UNL1        0.0148
     29 C         141.4788  136.5610  156.1748 C.ar    1  UNL1        0.0089
     30 N         141.8946  132.8409  154.8566 N.pl3   1  UNL1       -0.3046
     31 C         140.7532  131.9236  155.1819 C.3     1  UNL1        0.1081
     32 C         140.5456  130.6718  154.3821 C.3     1  UNL1        0.0938
     33 N         141.4795  130.3372  153.2569 N.3     1  UNL1       -0.2686
     34 C         141.2719  129.0854  152.4570 C.3     1  UNL1        0.0897
     35 C         142.6208  131.2544  152.9316 C.3     1  UNL1        0.0938
     36 C         142.8285  132.5063  153.7315 C.3     1  UNL1        0.1081
@<TRIPOS>BOND
     1    18    19    1
     2    19    20   ar
     3    20    21   ar
     4    21    17    1
     5    17    11    1
     6    11    12    1
     7    12    13    1
     8    13    14    1
     9    14     1    1
    10     1     2    2
    11     2     3    1
    12     2     4    1
    13     4     5    2
    14     5     6    1
    15     6     7    2
    16     7     8    1
    17     8    24    1
    18    24    25   ar
    19    25    26   ar
    20    26    27   ar
    21    27    30    1
    22    30    31    1
    23    31    32    1
    24    32    33    1
    25    33    34    1
    26    33    35    1
    27    35    36    1
    28    27    28   ar
    29    28    29   ar
    30     8     9    2
    31     9    10    1
    32    14    15    1
    33    15    16    1
    34    21    22   ar
    35    22    23   ar
    36    23    19   ar
    37    16    11    1
    38    10     1    1
    39    10     6    1
    40    29    24   ar
    41    36    30    1
@<TRIPOS>MOLECULE
*****
 36 41 0 0 0
SMALL
GASTEIGER

@<TRIPOS>ATOM
      1 C         143.0803  140.1861  157.8415 C.2     1  UNL1        0.0968
      2 C         143.9693  141.3499  157.5171 C.2     1  UNL1        0.0952
      3 BR        143.7451  142.6740  158.1854 Br      1  UNL1       -0.0439
      4 C         145.0824  141.1897  156.5245 C.2     1  UNL1        0.2434
      5 N         145.3066  139.8656  155.8562 N.2     1  UNL1       -0.0297
      6 C         144.4176  138.7018  156.1806 C.2     1  UNL1        0.4105
      7 N         144.3966  137.2862  155.6850 N.2     1  UNL1        0.0120
      8 C         143.2705  136.5715  156.3714 C.2     1  UNL1        0.3751
      9 N         142.5955  137.5454  157.2911 N.2     1  UNL1       -0.0450
     10 C         143.3045  138.8620  157.1732 C.3     1  UNL1        0.3605
     11 N         139.7408  140.6669  160.8192 N.3     1  UNL1       -0.2646
     12 C         139.5097  140.9942  159.3737 C.3     1  UNL1        0.0941
     13 C         140.6228  140.8339  158.3811 C.3     1  UNL1        0.1080
     14 N         141.9672  140.3463  158.8341 N.pl3   1  UNL1       -0.3037
     15 C         142.1984  140.0191  160.2795 C.3     1  UNL1        0.1080
     16 C         141.0852  140.1793  161.2721 C.3     1  UNL1        0.0941
     17 C         138.6278  140.8271  161.8118 C.3     1  UNL1        0.1222
     18 C         138.4249  144.7928  165.2923 C.3     1  UNL1        0.0754
     19 C         138.2726  143.9888  164.0351 C.ar    1  UNL1        0.1546
     20 C         138.7133  142.5686  163.8379 C.ar    1  UNL1        0.0550
     21 C         138.3658  142.1660  162.4353 C.ar    1  UNL1        0.1165
     22 N         137.7104  143.3374  161.7657 N.ar    1  UNL1       -0.0803
     23 O         137.6528  144.4639  162.7544 O.2     1  UNL1       -0.3580
     24 C         142.8867  135.1351  156.1728 C.ar    1  UNL1        0.0882
     25 C         141.7693  134.7798  155.2372 C.ar    1  UNL1        0.0089
     26 C         141.3856  133.3433  155.0388 C.ar    1  UNL1        0.0148
     27 C         142.1191  132.2622  155.7758 C.ar    1  UNL1        0.0479
     28 C         143.2364  132.6176  156.7114 C.ar    1  UNL1        0.0148
     29 C         143.6202  134.0540  156.9099 C.ar    1  UNL1        0.0089
     30 N         141.7352  130.8258  155.5773 N.pl3   1  UNL1       -0.3046
     31 C         142.5910  129.7349  156.1495 C.3     1  UNL1        0.1081
     32 C         142.2072  128.2984  155.9510 C.3     1  UNL1        0.0938
     33 N         140.9675  127.9531  155.1801 N.3     1  UNL1       -0.2686
     34 C         140.5837  126.5167  154.9816 C.3     1  UNL1        0.0897
     35 C         140.1119  129.0441  154.6079 C.3     1  UNL1        0.0938
     36 C         140.4957  130.4805  154.8065 C.3     1  UNL1        0.1081
@<TRIPOS>BOND
     1    18    19    1
     2    19    20   ar
     3    20    21   ar
     4    21    17    1
     5    17    11    1
     6    11    12    1
     7    12    13    1
     8    13    14    1
     9    14     1    1
    10     1     2    2
    11     2     3    1
    12     2     4    1
    13     4     5    2
    14     5     6    1
    15     6     7    2
    16     7     8    1
    17     8    24    1
    18    24    25   ar
    19    25    26   ar
    20    26    27   ar
    21    27    30    1
    22    30    31    1
    23    31    32    1
    24    32    33    1
    25    33    34    1
    26    33    35    1
    27    35    36    1
    28    27    28   ar
    29    28    29   ar
    30     8     9    2
    31     9    10    1
    32    14    15    1
    33    15    16    1
    34    21    22   ar
    35    22    23   ar
    36    23    19   ar
    37    16    11    1
    38    10     1    1
    39    10     6    1
    40    29    24   ar
    41    36    30    1
@<TRIPOS>MOLECULE
*****
 36 41 0 0 0
SMALL
GASTEIGER

@<TRIPOS>ATOM
      1 C         140.8712  139.8086  161.9010 C.2     1  UNL1        0.0968
      2 C         139.5823  139.0571  162.0554 C.2     1  UNL1        0.0952
      3 BR        138.9149  138.9802  163.3966 Br      1  UNL1       -0.0439
      4 C         138.9607  138.3825  160.8687 C.2     1  UNL1        0.2434
      5 N         139.6280  138.4594  159.5274 N.2     1  UNL1       -0.0297
      6 C         140.9169  139.2109  159.3731 C.2     1  UNL1        0.4105
      7 N         141.7990  139.4573  158.1851 N.2     1  UNL1        0.0120
      8 C         142.9657  140.2842  158.6377 C.2     1  UNL1        0.3751
      9 N         142.8048  140.5489  160.1054 N.2     1  UNL1       -0.0450
     10 C         141.5385  139.8855  160.5599 C.3     1  UNL1        0.3605
     11 N         142.7359  141.8325  165.4615 N.3     1  UNL1       -0.2646
     12 C         141.6739  142.5363  164.6697 C.3     1  UNL1        0.0941
     13 C         141.0524  141.8617  163.4829 C.3     1  UNL1        0.1080
     14 N         141.4928  140.4832  163.0879 N.pl3   1  UNL1       -0.3037
     15 C         142.5547  139.7794  163.8796 C.3     1  UNL1        0.1080
     16 C         143.1763  140.4541  165.0664 C.3     1  UNL1        0.0941
     17 C         143.3575  142.5071  166.6482 C.3     1  UNL1        0.1222
     18 C         140.6630  140.4150  170.6787 C.3     1  UNL1        0.0754
     19 C         141.6946  141.1640  169.8881 C.ar    1  UNL1        0.1546
     20 C         141.7364  141.2954  168.3944 C.ar    1  UNL1        0.0550
     21 C         142.9330  142.1256  168.0355 C.ar    1  UNL1        0.1165
     22 N         143.6307  142.5072  169.3073 N.ar    1  UNL1       -0.0803
     23 O         142.8653  141.9129  170.4522 O.2     1  UNL1       -0.3580
     24 C         144.0952  140.7625  157.7743 C.ar    1  UNL1        0.0882
     25 C         144.8487  142.0053  158.1455 C.ar    1  UNL1        0.0089
     26 C         145.9782  142.4835  157.2819 C.ar    1  UNL1        0.0148
     27 C         146.3541  141.7191  156.0473 C.ar    1  UNL1        0.0479
     28 C         145.6006  140.4764  155.6761 C.ar    1  UNL1        0.0148
     29 C         144.4711  139.9981  156.5397 C.ar    1  UNL1        0.0089
     30 N         147.4836  142.1974  155.1839 N.pl3   1  UNL1       -0.3046
     31 C         147.2349  143.2369  154.1314 C.3     1  UNL1        0.1081
     32 C         148.3644  143.7152  153.2680 C.3     1  UNL1        0.0938
     33 N         149.7426  143.1539  153.4571 N.3     1  UNL1       -0.2686
     34 C         150.8720  143.6323  152.5936 C.3     1  UNL1        0.0897
     35 C         149.9912  142.1145  154.5095 C.3     1  UNL1        0.0938
     36 C         148.8617  141.6362  155.3729 C.3     1  UNL1        0.1081
@<TRIPOS>BOND
     1    18    19    1
     2    19    20   ar
     3    20    21   ar
     4    21    17    1
     5    17    11    1
     6    11    12    1
     7    12    13    1
     8    13    14    1
     9    14     1    1
    10     1     2    2
    11     2     3    1
    12     2     4    1
    13     4     5    2
    14     5     6    1
    15     6     7    2
    16     7     8    1
    17     8    24    1
    18    24    25   ar
    19    25    26   ar
    20    26    27   ar
    21    27    30    1
    22    30    31    1
    23    31    32    1
    24    32    33    1
    25    33    34    1
    26    33    35    1
    27    35    36    1
    28    27    28   ar
    29    28    29   ar
    30     8     9    2
    31     9    10    1
    32    14    15    1
    33    15    16    1
    34    21    22   ar
    35    22    23   ar
    36    23    19   ar
    37    16    11    1
    38    10     1    1
    39    10     6    1
    40    29    24   ar
    41    36    30    1
@<TRIPOS>MOLECULE
*****
 36 41 0 0 0
SMALL
GASTEIGER

@<TRIPOS>ATOM
      1 C         143.1702  140.3114  158.7075 C.2     1  UNL1        0.0968
      2 C         143.4049  141.6831  158.1478 C.2     1  UNL1        0.0952
      3 BR        143.4907  142.8642  159.0686 Br      1  UNL1       -0.0439
      4 C         143.5537  141.8738  156.6675 C.2     1  UNL1        0.2434
      5 N         143.4678  140.6928  155.7467 N.2     1  UNL1       -0.0297
      6 C         143.2332  139.3210  156.3064 C.2     1  UNL1        0.4105
      7 N         143.1032  137.9782  155.6507 N.2     1  UNL1        0.0120
      8 C         142.8740  136.9577  156.7258 C.2     1  UNL1        0.3751
      9 N         142.8624  137.6697  158.0460 N.2     1  UNL1       -0.0450
     10 C         143.0844  139.1304  157.7868 C.3     1  UNL1        0.3605
     11 N         142.7239  139.7394  163.1487 N.3     1  UNL1       -0.2646
     12 C         144.0304  139.4293  162.4800 C.3     1  UNL1        0.0941
     13 C         144.1792  139.6199  160.9997 C.3     1  UNL1        0.1080
     14 N         143.0214  140.1207  160.1879 N.pl3   1  UNL1       -0.3037
     15 C         141.7150  140.4308  160.8565 C.3     1  UNL1        0.1080
     16 C         141.5663  140.2401  162.3369 C.3     1  UNL1        0.0941
     17 C         142.5751  139.5487  164.6290 C.3     1  UNL1        0.1222
     18 C         137.8022  138.6801  166.7137 C.3     1  UNL1        0.0754
     19 C         139.0491  139.3673  166.2414 C.ar    1  UNL1        0.1546
     20 C         140.2271  138.7061  165.5893 C.ar    1  UNL1        0.0550
     21 C         141.2429  139.7665  165.2832 C.ar    1  UNL1        0.1165
     22 N         140.6927  141.0830  165.7460 N.ar    1  UNL1       -0.0803
     23 O         139.3369  140.8362  166.3382 O.2     1  UNL1       -0.3580
     24 C         142.6890  135.4838  156.5174 C.ar    1  UNL1        0.0882
     25 C         143.5151  134.5062  157.2995 C.ar    1  UNL1        0.0089
     26 C         143.3300  133.0323  157.0910 C.ar    1  UNL1        0.0148
     27 C         142.3188  132.5360  156.1004 C.ar    1  UNL1        0.0479
     28 C         141.4927  133.5136  155.3183 C.ar    1  UNL1        0.0148
     29 C         141.6778  134.9875  155.5268 C.ar    1  UNL1        0.0089
     30 N         142.1338  131.0621  155.8920 N.pl3   1  UNL1       -0.3046
     31 C         143.0551  130.0880  156.5645 C.3     1  UNL1        0.1081
     32 C         142.8701  128.6142  156.3560 C.3     1  UNL1        0.0938
     33 N         141.7636  128.1144  155.4751 N.3     1  UNL1       -0.2686
     34 C         141.5785  126.6406  155.2666 C.3     1  UNL1        0.0897
     35 C         140.8423  129.0885  154.8026 C.3     1  UNL1        0.0938
     36 C         141.0273  130.5624  155.0111 C.3     1  UNL1        0.1081
@<TRIPOS>BOND
     1    18    19    1
     2    19    20   ar
     3    20    21   ar
     4    21    17    1
     5    17    11    1
     6    11    12    1
     7    12    13    1
     8    13    14    1
     9    14     1    1
    10     1     2    2
    11     2     3    1
    12     2     4    1
    13     4     5    2
    14     5     6    1
    15     6     7    2
    16     7     8    1
    17     8    24    1
    18    24    25   ar
    19    25    26   ar
    20    26    27   ar
    21    27    30    1
    22    30    31    1
    23    31    32    1
    24    32    33    1
    25    33    34    1
    26    33    35    1
    27    35    36    1
    28    27    28   ar
    29    28    29   ar
    30     8     9    2
    31     9    10    1
    32    14    15    1
    33    15    16    1
    34    21    22   ar
    35    22    23   ar
    36    23    19   ar
    37    16    11    1
    38    10     1    1
    39    10     6    1
    40    29    24   ar
    41    36    30    1
@<TRIPOS>MOLECULE
*****
 36 41 0 0 0
SMALL
GASTEIGER

@<TRIPOS>ATOM
      1 C         140.3420  143.6198  161.0300 C.2     1  UNL1        0.0968
      2 C         140.1325  145.0862  160.7942 C.2     1  UNL1        0.0952
      3 BR        139.8409  145.9975  161.9495 Br      1  UNL1       -0.0439
      4 C         140.2145  145.6414  159.4032 C.2     1  UNL1        0.2434
      5 N         140.5061  144.7301  158.2479 N.2     1  UNL1       -0.0297
      6 C         140.7156  143.2637  158.4837 C.2     1  UNL1        0.4105
      7 N         141.0161  142.1297  157.5490 N.2     1  UNL1        0.0120
      8 C         141.1198  140.8737  158.3624 C.2     1  UNL1        0.3751
      9 N         140.8833  141.2314  159.7998 N.2     1  UNL1       -0.0450
     10 C         140.6336  142.7085  159.8748 C.3     1  UNL1        0.3605
     11 N         140.0957  141.9543  165.2032 N.3     1  UNL1       -0.2646
     12 C         138.8713  141.9925  164.3374 C.3     1  UNL1        0.0941
     13 C         138.9534  142.5476  162.9464 C.3     1  UNL1        0.1080
     14 N         140.2599  143.0646  162.4211 N.pl3   1  UNL1       -0.3037
     15 C         141.4843  143.0265  163.2868 C.3     1  UNL1        0.1080
     16 C         141.4021  142.4713  164.6779 C.3     1  UNL1        0.0941
     17 C         140.0136  141.3991  166.5942 C.3     1  UNL1        0.1222
     18 C         144.0034  142.4409  169.8924 C.3     1  UNL1        0.0754
     19 C         142.6686  142.4843  169.2095 C.ar    1  UNL1        0.1546
     20 C         142.2403  141.6269  168.0555 C.ar    1  UNL1        0.0550
     21 C         140.8347  142.0054  167.6935 C.ar    1  UNL1        0.1165
     22 N         140.3943  143.0967  168.6236 N.ar    1  UNL1       -0.0803
     23 O         141.5277  143.3927  169.5605 O.2     1  UNL1       -0.3580
     24 C         141.4091  139.5009  157.8316 C.ar    1  UNL1        0.0882
     25 C         142.4079  138.6234  158.5260 C.ar    1  UNL1        0.0089
     26 C         142.6972  137.2505  157.9951 C.ar    1  UNL1        0.0148
     27 C         141.9876  136.7553  156.7699 C.ar    1  UNL1        0.0479
     28 C         140.9888  137.6328  156.0755 C.ar    1  UNL1        0.0148
     29 C         140.6995  139.0056  156.6063 C.ar    1  UNL1        0.0089
     30 N         142.2769  135.3825  156.2391 N.pl3   1  UNL1       -0.3046
     31 C         141.4182  134.8010  155.1553 C.3     1  UNL1        0.1081
     32 C         141.7075  133.4282  154.6245 C.3     1  UNL1        0.0938
     33 N         142.8556  132.6369  155.1775 N.3     1  UNL1       -0.2686
     34 C         143.1449  131.2641  154.6467 C.3     1  UNL1        0.0897
     35 C         143.7143  133.2184  156.2612 C.3     1  UNL1        0.0938
     36 C         143.4249  134.5912  156.7921 C.3     1  UNL1        0.1081
@<TRIPOS>BOND
     1    18    19    1
     2    19    20   ar
     3    20    21   ar
     4    21    17    1
     5    17    11    1
     6    11    12    1
     7    12    13    1
     8    13    14    1
     9    14     1    1
    10     1     2    2
    11     2     3    1
    12     2     4    1
    13     4     5    2
    14     5     6    1
    15     6     7    2
    16     7     8    1
    17     8    24    1
    18    24    25   ar
    19    25    26   ar
    20    26    27   ar
    21    27    30    1
    22    30    31    1
    23    31    32    1
    24    32    33    1
    25    33    34    1
    26    33    35    1
    27    35    36    1
    28    27    28   ar
    29    28    29   ar
    30     8     9    2
    31     9    10    1
    32    14    15    1
    33    15    16    1
    34    21    22   ar
    35    22    23   ar
    36    23    19   ar
    37    16    11    1
    38    10     1    1
    39    10     6    1
    40    29    24   ar
    41    36    30    1
@<TRIPOS>MOLECULE
*****
 36 41 0 0 0
SMALL
GASTEIGER

@<TRIPOS>ATOM
      1 C         139.6117  140.6511  156.8551 C.2     1  UNL1        0.0968
      2 C         138.9257  141.2298  155.6533 C.2     1  UNL1        0.0952
      3 BR        139.2415  140.7046  154.2841 Br      1  UNL1       -0.0439
      4 C         137.9240  142.3336  155.8205 C.2     1  UNL1        0.2434
      5 N         137.6083  142.8588  157.1897 N.2     1  UNL1       -0.0297
      6 C         138.2943  142.2801  158.3915 C.2     1  UNL1        0.4105
      7 N         138.1881  142.5918  159.8549 N.2     1  UNL1        0.0120
      8 C         139.1242  141.6806  160.5920 C.2     1  UNL1        0.3751
      9 N         139.8090  140.8057  159.5842 N.2     1  UNL1       -0.0450
     10 C         139.2961  141.1762  158.2242 C.3     1  UNL1        0.3605
     11 N         142.6169  137.3394  156.3531 N.3     1  UNL1       -0.2646
     12 C         141.1638  137.0128  156.5322 C.3     1  UNL1        0.0941
     13 C         140.1622  138.1167  156.6995 C.3     1  UNL1        0.1080
     14 N         140.6135  139.5472  156.6878 N.pl3   1  UNL1       -0.3037
     15 C         142.0665  139.8738  156.5087 C.3     1  UNL1        0.1080
     16 C         143.0682  138.7698  156.3414 C.3     1  UNL1        0.0941
     17 C         143.6186  136.2356  156.1858 C.3     1  UNL1        0.1222
     18 C         141.6995  131.4144  155.2085 C.3     1  UNL1        0.0754
     19 C         142.3137  132.5906  155.9082 C.ar    1  UNL1        0.1546
     20 C         142.5728  133.9390  155.3042 C.ar    1  UNL1        0.0550
     21 C         143.1957  134.8066  156.3573 C.ar    1  UNL1        0.1165
     22 N         143.3216  133.9944  157.6122 N.ar    1  UNL1       -0.0803
     23 O         142.7765  132.6249  157.3346 O.2     1  UNL1       -0.3580
     24 C         139.3380  141.6496  162.0764 C.ar    1  UNL1        0.0882
     25 C         140.6654  141.2292  162.6343 C.ar    1  UNL1        0.0089
     26 C         140.8791  141.1983  164.1187 C.ar    1  UNL1        0.0148
     27 C         139.7656  141.5878  165.0452 C.ar    1  UNL1        0.0479
     28 C         138.4382  142.0082  164.4872 C.ar    1  UNL1        0.0148
     29 C         138.2245  142.0391  163.0028 C.ar    1  UNL1        0.0089
     30 N         139.9794  141.5568  166.5295 N.pl3   1  UNL1       -0.3046
     31 C         139.6613  140.3144  167.3074 C.3     1  UNL1        0.1081
     32 C         139.8751  140.2834  168.7917 C.3     1  UNL1        0.0938
     33 N         140.4071  141.4951  169.4982 N.3     1  UNL1       -0.2686
     34 C         140.6209  141.4641  170.9826 C.3     1  UNL1        0.0897
     35 C         140.7252  142.7374  168.7203 C.3     1  UNL1        0.0938
     36 C         140.5114  142.7684  167.2360 C.3     1  UNL1        0.1081
@<TRIPOS>BOND
     1    18    19    1
     2    19    20   ar
     3    20    21   ar
     4    21    17    1
     5    17    11    1
     6    11    12    1
     7    12    13    1
     8    13    14    1
     9    14     1    1
    10     1     2    2
    11     2     3    1
    12     2     4    1
    13     4     5    2
    14     5     6    1
    15     6     7    2
    16     7     8    1
    17     8    24    1
    18    24    25   ar
    19    25    26   ar
    20    26    27   ar
    21    27    30    1
    22    30    31    1
    23    31    32    1
    24    32    33    1
    25    33    34    1
    26    33    35    1
    27    35    36    1
    28    27    28   ar
    29    28    29   ar
    30     8     9    2
    31     9    10    1
    32    14    15    1
    33    15    16    1
    34    21    22   ar
    35    22    23   ar
    36    23    19   ar
    37    16    11    1
    38    10     1    1
    39    10     6    1
    40    29    24   ar
    41    36    30    1
@<TRIPOS>MOLECULE
*****
 36 41 0 0 0
SMALL
GASTEIGER

@<TRIPOS>ATOM
      1 C         142.1671  140.5111  157.6180 C.2     1  UNL1        0.0968
      2 C         142.7558  141.7843  157.0865 C.2     1  UNL1        0.0952
      3 BR        142.3198  143.1045  157.6496 Br      1  UNL1       -0.0439
      4 C         143.7804  141.7372  155.9922 C.2     1  UNL1        0.2434
      5 N         144.2165  140.4170  155.4291 N.2     1  UNL1       -0.0297
      6 C         143.6277  139.1439  155.9606 C.2     1  UNL1        0.4105
      7 N         143.8605  137.7053  155.6050 N.2     1  UNL1        0.0120
      8 C         142.9797  136.8633  156.4798 C.2     1  UNL1        0.3751
      9 N         142.2025  137.7814  157.3759 N.2     1  UNL1       -0.0450
     10 C         142.6030  139.1909  157.0550 C.3     1  UNL1        0.3605
     11 N         139.0930  140.6523  160.9014 N.3     1  UNL1       -0.2646
     12 C         140.5404  140.4468  161.2373 C.3     1  UNL1        0.0941
     13 C         141.5650  140.3997  160.1430 C.3     1  UNL1        0.1080
     14 N         141.1423  140.5582  158.7124 N.pl3   1  UNL1       -0.3037
     15 C         139.6950  140.7637  158.3764 C.3     1  UNL1        0.1080
     16 C         138.6703  140.8108  159.4709 C.3     1  UNL1        0.0941
     17 C         138.0684  140.6994  161.9957 C.3     1  UNL1        0.1222
     18 C         138.3815  139.1475  167.0331 C.3     1  UNL1        0.0754
     19 C         138.3803  139.1325  165.5332 C.ar    1  UNL1        0.1546
     20 C         138.1496  140.3152  164.6398 C.ar    1  UNL1        0.0550
     21 C         138.2364  139.8459  163.2178 C.ar    1  UNL1        0.1165
     22 N         138.5208  138.3731  163.2323 N.ar    1  UNL1       -0.0803
     23 O         138.6097  137.9322  164.6632 O.2     1  UNL1       -0.3580
     24 C         142.8915  135.3660  156.4616 C.ar    1  UNL1        0.0882
     25 C         143.7577  134.5525  157.3769 C.ar    1  UNL1        0.0089
     26 C         143.6694  133.0552  157.3586 C.ar    1  UNL1        0.0148
     27 C         142.7150  132.3714  156.4251 C.ar    1  UNL1        0.0479
     28 C         141.8488  133.1849  155.5098 C.ar    1  UNL1        0.0148
     29 C         141.9371  134.6822  155.5280 C.ar    1  UNL1        0.0089
     30 N         142.6268  130.8741  156.4069 N.pl3   1  UNL1       -0.3046
     31 C         143.3565  130.0672  157.4396 C.3     1  UNL1        0.1081
     32 C         143.2683  128.5699  157.4214 C.3     1  UNL1        0.0938
     33 N         142.4503  127.8796  156.3704 N.3     1  UNL1       -0.2686
     34 C         142.3621  126.3823  156.3522 C.3     1  UNL1        0.0897
     35 C         141.7207  128.6865  155.3378 C.3     1  UNL1        0.0938
     36 C         141.8089  130.1838  155.3560 C.3     1  UNL1        0.1081
@<TRIPOS>BOND
     1    18    19    1
     2    19    20   ar
     3    20    21   ar
     4    21    17    1
     5    17    11    1
     6    11    12    1
     7    12    13    1
     8    13    14    1
     9    14     1    1
    10     1     2    2
    11     2     3    1
    12     2     4    1
    13     4     5    2
    14     5     6    1
    15     6     7    2
    16     7     8    1
    17     8    24    1
    18    24    25   ar
    19    25    26   ar
    20    26    27   ar
    21    27    30    1
    22    30    31    1
    23    31    32    1
    24    32    33    1
    25    33    34    1
    26    33    35    1
    27    35    36    1
    28    27    28   ar
    29    28    29   ar
    30     8     9    2
    31     9    10    1
    32    14    15    1
    33    15    16    1
    34    21    22   ar
    35    22    23   ar
    36    23    19   ar
    37    16    11    1
    38    10     1    1
    39    10     6    1
    40    29    24   ar
    41    36    30    1
