@<TRIPOS>MOLECULE
*****
 34 38 0 0 0
SMALL
GASTEIGER

@<TRIPOS>ATOM
      1 C         142.5869  140.2679  165.6429 C.3     1  UNL1        0.1531
      2 C         141.5484  139.6667  164.7429 C.3     1  UNL1        0.1067
      3 N         141.8244  139.5142  163.2764 N.3     1  UNL1       -0.2665
      4 C         140.7859  138.9130  162.3763 C.3     1  UNL1        0.0940
      5 C         141.0619  138.7605  160.9099 C.3     1  UNL1        0.1107
      6 N         142.3764  139.2091  160.3435 N.am    1  UNL1       -0.2763
      7 C         142.6523  139.0566  158.8769 C.2     1  UNL1        0.2318
      8 O         143.9668  139.5052  158.3105 O.2     1  UNL1       -0.2744
      9 C         143.4148  139.8103  161.2435 C.3     1  UNL1        0.1119
     10 C         143.1389  139.9628  162.7100 C.3     1  UNL1        0.1075
     11 C         144.1774  140.5640  163.6100 C.3     1  UNL1        0.1601
     12 O         143.9014  140.7165  165.0765 O.3     1  UNL1       -0.3489
     13 C         141.3075  142.7773  166.6755 C.3     1  UNL1        0.0316
     14 C         141.6712  141.6751  167.6257 C.ar    1  UNL1       -0.0117
     15 C         142.3109  140.4204  167.1094 C.ar    1  UNL1        0.0027
     16 C         142.6746  139.3182  168.0597 C.ar    1  UNL1        0.0001
     17 C         142.3987  139.4707  169.5261 C.ar    1  UNL1        0.0301
     18 C         141.7590  140.7255  170.0424 C.ar    1  UNL1        0.1493
     19 F         141.4830  140.8779  171.5089 F       1  UNL1       -0.2035
     20 C         141.3952  141.8276  169.0922 C.ar    1  UNL1        0.0916
     21 C         140.7555  143.0823  169.6085 C.1     1  UNL1        0.1024
     22 N         140.1158  144.3370  170.1247 N.1     1  UNL1       -0.1908
     23 C         141.6139  138.4554  157.9769 C.3     1  UNL1        0.1325
     24 C         141.9169  137.1980  157.2173 C.ar    1  UNL1        0.0874
     25 C         140.9987  136.7440  156.1214 C.ar    1  UNL1        0.1157
     26 N         141.3017  135.4866  155.3618 N.ar    1  UNL1       -0.2223
     27 C         142.5230  134.6832  155.6979 C.ar    1  UNL1        0.1865
     28 C         143.4412  135.1371  156.7937 C.ar    1  UNL1        0.1373
     29 N         143.1381  136.3945  157.5534 N.ar    1  UNL1       -0.2429
     30 N         142.8260  133.4258  154.9383 N.ar    1  UNL1       -0.1693
     31 C         142.2753  133.0537  153.5935 C.ar    1  UNL1        0.2273
     32 N         142.8419  131.7176  153.2141 N.ar    1  UNL1       -0.1044
     33 N         143.7428  131.2639  154.3244 N.ar    1  UNL1       -0.0222
     34 N         143.7330  132.3196  155.3900 N.ar    1  UNL1       -0.0371
@<TRIPOS>BOND
     1    13    14    1
     2    14    15   ar
     3     1    15    1
     4     1     2    1
     5     2     3    1
     6     3     4    1
     7     4     5    1
     8     5     6    1
     9     6     7   am
    10     7     8    2
    11     7    23    1
    12    23    24    1
    13    24    25   ar
    14    25    26   ar
    15    26    27   ar
    16    27    30    1
    17    30    31   ar
    18    31    32   ar
    19    32    33   ar
    20    33    34   ar
    21    27    28   ar
    22    28    29   ar
    23     6     9    1
    24    10     9    1
    25    10    11    1
    26    11    12    1
    27    15    16   ar
    28    16    17   ar
    29    17    18   ar
    30    18    19    1
    31    18    20   ar
    32    20    21    1
    33    21    22    3
    34    20    14   ar
    35    12     1    1
    36    10     3    1
    37    29    24   ar
    38    34    30   ar
@<TRIPOS>MOLECULE
*****
 34 38 0 0 0
SMALL
GASTEIGER

@<TRIPOS>ATOM
      1 C         142.3347  140.9577  165.9988 C.3     1  UNL1        0.1531
      2 C         142.5241  142.0754  165.0165 C.3     1  UNL1        0.1067
      3 N         142.8871  141.7697  163.5935 N.3     1  UNL1       -0.2665
      4 C         143.0765  142.8874  162.6111 C.3     1  UNL1        0.0940
      5 C         143.4395  142.5817  161.1882 C.3     1  UNL1        0.1107
      6 N         143.6131  141.1585  160.7476 N.am    1  UNL1       -0.2763
      7 C         143.9761  140.8529  159.3246 C.2     1  UNL1        0.2318
      8 O         144.1496  139.4296  158.8839 O.2     1  UNL1       -0.2744
      9 C         143.4237  140.0408  161.7299 C.3     1  UNL1        0.1119
     10 C         143.0607  140.3464  163.1529 C.3     1  UNL1        0.1075
     11 C         142.8713  139.2288  164.1352 C.3     1  UNL1        0.1601
     12 O         142.5083  139.5345  165.5581 O.3     1  UNL1       -0.3489
     13 C         139.7976  139.8639  167.1678 C.3     1  UNL1        0.0316
     14 C         140.7032  140.7164  168.0063 C.ar    1  UNL1       -0.0117
     15 C         141.9717  141.2633  167.4218 C.ar    1  UNL1        0.0027
     16 C         142.8773  142.1159  168.2603 C.ar    1  UNL1        0.0001
     17 C         142.5144  142.4215  169.6832 C.ar    1  UNL1        0.0301
     18 C         141.2458  141.8746  170.2678 C.ar    1  UNL1        0.1493
     19 F         140.8828  142.1802  171.6907 F       1  UNL1       -0.2035
     20 C         140.3402  141.0220  169.4293 C.ar    1  UNL1        0.0916
     21 C         139.0716  140.4751  170.0137 C.1     1  UNL1        0.1024
     22 N         137.8031  139.9282  170.5982 N.1     1  UNL1       -0.1908
     23 C         144.1655  141.9705  158.3423 C.3     1  UNL1        0.1325
     24 C         145.3517  141.9691  157.4242 C.ar    1  UNL1        0.0874
     25 C         145.3169  141.1705  156.1549 C.ar    1  UNL1        0.1157
     26 N         146.5031  141.1691  155.2369 N.ar    1  UNL1       -0.2223
     27 C         147.7242  141.9663  155.5881 C.ar    1  UNL1        0.1865
     28 C         147.7591  142.7649  156.8573 C.ar    1  UNL1        0.1373
     29 N         146.5728  142.7663  157.7754 N.ar    1  UNL1       -0.2429
     30 N         148.9104  141.9649  154.6701 N.ar    1  UNL1       -0.1693
     31 C         148.8985  142.3231  153.2135 C.ar    1  UNL1        0.2273
     32 N         150.2977  142.1846  152.6906 N.ar    1  UNL1       -0.1044
     33 N         151.1743  141.7409  153.8241 N.ar    1  UNL1       -0.0222
     34 N         150.3170  141.6051  155.0474 N.ar    1  UNL1       -0.0371
@<TRIPOS>BOND
     1    13    14    1
     2    14    15   ar
     3     1    15    1
     4     1     2    1
     5     2     3    1
     6     3     4    1
     7     4     5    1
     8     5     6    1
     9     6     7   am
    10     7     8    2
    11     7    23    1
    12    23    24    1
    13    24    25   ar
    14    25    26   ar
    15    26    27   ar
    16    27    30    1
    17    30    31   ar
    18    31    32   ar
    19    32    33   ar
    20    33    34   ar
    21    27    28   ar
    22    28    29   ar
    23     6     9    1
    24    10     9    1
    25    10    11    1
    26    11    12    1
    27    15    16   ar
    28    16    17   ar
    29    17    18   ar
    30    18    19    1
    31    18    20   ar
    32    20    21    1
    33    21    22    3
    34    20    14   ar
    35    12     1    1
    36    10     3    1
    37    29    24   ar
    38    34    30   ar
@<TRIPOS>MOLECULE
*****
 34 38 0 0 0
SMALL
GASTEIGER

@<TRIPOS>ATOM
      1 C         142.3611  140.5517  164.2783 C.3     1  UNL1        0.1531
      2 C         141.4896  139.7191  163.3853 C.3     1  UNL1        0.1067
      3 N         141.8714  139.5076  161.9503 N.3     1  UNL1       -0.2665
      4 C         140.9999  138.6750  161.0572 C.3     1  UNL1        0.0940
      5 C         141.3816  138.4634  159.6222 C.3     1  UNL1        0.1107
      6 N         142.6348  139.0843  159.0801 N.am    1  UNL1       -0.2763
      7 C         143.0165  138.8727  157.6449 C.2     1  UNL1        0.2318
      8 O         144.2697  139.4936  157.1028 O.2     1  UNL1       -0.2744
      9 C         143.5063  139.9169  159.9730 C.3     1  UNL1        0.1119
     10 C         143.1245  140.1285  161.4081 C.3     1  UNL1        0.1075
     11 C         143.9960  140.9611  162.3011 C.3     1  UNL1        0.1601
     12 O         143.6143  141.1727  163.7361 O.3     1  UNL1       -0.3489
     13 C         143.3241  138.6438  166.3837 C.3     1  UNL1        0.0316
     14 C         142.4608  139.8094  166.7661 C.ar    1  UNL1       -0.0117
     15 C         141.9793  140.7633  165.7134 C.ar    1  UNL1        0.0027
     16 C         141.1161  141.9289  166.0958 C.ar    1  UNL1        0.0001
     17 C         140.7344  142.1406  167.5309 C.ar    1  UNL1        0.0301
     18 C         141.2159  141.1866  168.5836 C.ar    1  UNL1        0.1493
     19 F         140.8341  141.3983  170.0187 F       1  UNL1       -0.2035
     20 C         142.0791  140.0211  168.2012 C.ar    1  UNL1        0.0916
     21 C         142.5606  139.0671  169.2539 C.1     1  UNL1        0.1024
     22 N         143.0421  138.1132  170.3065 N.1     1  UNL1       -0.1908
     23 C         142.1451  138.0401  156.7520 C.3     1  UNL1        0.1325
     24 C         142.5626  136.6474  156.3833 C.ar    1  UNL1        0.0874
     25 C         142.4408  136.1789  154.9635 C.ar    1  UNL1        0.1157
     26 N         142.8583  134.7862  154.5948 N.ar    1  UNL1       -0.2223
     27 C         143.3976  133.8619  155.6459 C.ar    1  UNL1        0.1865
     28 C         143.5194  134.3303  157.0656 C.ar    1  UNL1        0.1373
     29 N         143.1019  135.7231  157.4344 N.ar    1  UNL1       -0.2429
     30 N         143.8151  132.4692  155.2772 N.ar    1  UNL1       -0.1693
     31 C         144.7367  131.5870  156.0661 C.ar    1  UNL1        0.2273
     32 N         144.8755  130.2866  155.3313 N.ar    1  UNL1       -0.1044
     33 N         144.0396  130.3651  154.0882 N.ar    1  UNL1       -0.0222
     34 N         143.3843  131.7140  154.0548 N.ar    1  UNL1       -0.0371
@<TRIPOS>BOND
     1    13    14    1
     2    14    15   ar
     3     1    15    1
     4     1     2    1
     5     2     3    1
     6     3     4    1
     7     4     5    1
     8     5     6    1
     9     6     7   am
    10     7     8    2
    11     7    23    1
    12    23    24    1
    13    24    25   ar
    14    25    26   ar
    15    26    27   ar
    16    27    30    1
    17    30    31   ar
    18    31    32   ar
    19    32    33   ar
    20    33    34   ar
    21    27    28   ar
    22    28    29   ar
    23     6     9    1
    24    10     9    1
    25    10    11    1
    26    11    12    1
    27    15    16   ar
    28    16    17   ar
    29    17    18   ar
    30    18    19    1
    31    18    20   ar
    32    20    21    1
    33    21    22    3
    34    20    14   ar
    35    12     1    1
    36    10     3    1
    37    29    24   ar
    38    34    30   ar
@<TRIPOS>MOLECULE
*****
 34 38 0 0 0
SMALL
GASTEIGER

@<TRIPOS>ATOM
      1 C         142.2610  142.4789  165.7719 C.3     1  UNL1        0.1531
      2 C         143.2172  141.7487  164.8761 C.3     1  UNL1        0.1067
      3 N         143.3111  142.1126  163.4239 N.3     1  UNL1       -0.2665
      4 C         144.2673  141.3825  162.5280 C.3     1  UNL1        0.0940
      5 C         144.3612  141.7463  161.0759 C.3     1  UNL1        0.1107
      6 N         143.4988  142.8404  160.5196 N.am    1  UNL1       -0.2763
      7 C         143.5927  143.2042  159.0673 C.2     1  UNL1        0.2318
      8 O         142.7304  144.2982  158.5110 O.2     1  UNL1       -0.2744
      9 C         142.5426  143.5705  161.4154 C.3     1  UNL1        0.1119
     10 C         142.4487  143.2066  162.8676 C.3     1  UNL1        0.1075
     11 C         141.4925  143.9368  163.7634 C.3     1  UNL1        0.1601
     12 O         141.3986  143.5729  165.2155 O.3     1  UNL1       -0.3489
     13 C         139.7606  141.2131  166.8425 C.3     1  UNL1        0.0316
     14 C         140.9169  141.4822  167.7594 C.ar    1  UNL1       -0.0117
     15 C         142.1671  142.1150  167.2241 C.ar    1  UNL1        0.0027
     16 C         143.3234  142.3840  168.1409 C.ar    1  UNL1        0.0001
     17 C         143.2295  142.0202  169.5931 C.ar    1  UNL1        0.0301
     18 C         141.9793  141.3873  170.1284 C.ar    1  UNL1        0.1493
     19 F         141.8855  141.0235  171.5806 F       1  UNL1       -0.2035
     20 C         140.8230  141.1183  169.2116 C.ar    1  UNL1        0.0916
     21 C         139.5729  140.4855  169.7469 C.1     1  UNL1        0.1024
     22 N         138.3227  139.8526  170.2822 N.1     1  UNL1       -0.1908
     23 C         144.5490  142.4741  158.1715 C.3     1  UNL1        0.1325
     24 C         144.1749  141.1355  157.6075 C.ar    1  UNL1        0.0874
     25 C         145.0734  140.4634  156.6120 C.ar    1  UNL1        0.1157
     26 N         144.6993  139.1248  156.0480 N.ar    1  UNL1       -0.2223
     27 C         143.4267  138.4582  156.4795 C.ar    1  UNL1        0.1865
     28 C         142.5282  139.1302  157.4749 C.ar    1  UNL1        0.1373
     29 N         142.9023  140.4689  158.0390 N.ar    1  UNL1       -0.2429
     30 N         143.0527  137.1196  155.9154 N.ar    1  UNL1       -0.1693
     31 C         144.0078  136.0611  155.4492 C.ar    1  UNL1        0.2273
     32 N         143.2032  134.8917  154.9642 N.ar    1  UNL1       -0.1044
     33 N         141.7507  135.2275  155.1307 N.ar    1  UNL1       -0.0222
     34 N         141.6577  136.6044  155.7186 N.ar    1  UNL1       -0.0371
@<TRIPOS>BOND
     1    13    14    1
     2    14    15   ar
     3     1    15    1
     4     1     2    1
     5     2     3    1
     6     3     4    1
     7     4     5    1
     8     5     6    1
     9     6     7   am
    10     7     8    2
    11     7    23    1
    12    23    24    1
    13    24    25   ar
    14    25    26   ar
    15    26    27   ar
    16    27    30    1
    17    30    31   ar
    18    31    32   ar
    19    32    33   ar
    20    33    34   ar
    21    27    28   ar
    22    28    29   ar
    23     6     9    1
    24    10     9    1
    25    10    11    1
    26    11    12    1
    27    15    16   ar
    28    16    17   ar
    29    17    18   ar
    30    18    19    1
    31    18    20   ar
    32    20    21    1
    33    21    22    3
    34    20    14   ar
    35    12     1    1
    36    10     3    1
    37    29    24   ar
    38    34    30   ar
@<TRIPOS>MOLECULE
*****
 34 38 0 0 0
SMALL
GASTEIGER

@<TRIPOS>ATOM
      1 C         141.6013  141.1162  165.6838 C.3     1  UNL1        0.1531
      2 C         140.9450  141.9921  164.6582 C.3     1  UNL1        0.1067
      3 N         141.1853  141.7468  163.1981 N.3     1  UNL1       -0.2665
      4 C         140.5290  142.6227  162.1724 C.3     1  UNL1        0.0940
      5 C         140.7694  142.3775  160.7123 C.3     1  UNL1        0.1107
      6 N         141.6661  141.2563  160.2778 N.am    1  UNL1       -0.2763
      7 C         141.9065  141.0110  158.8175 C.2     1  UNL1        0.2318
      8 O         142.8032  139.8898  158.3830 O.2     1  UNL1       -0.2744
      9 C         142.3224  140.3803  161.3034 C.3     1  UNL1        0.1119
     10 C         142.0821  140.6256  162.7636 C.3     1  UNL1        0.1075
     11 C         142.7384  139.7497  163.7892 C.3     1  UNL1        0.1601
     12 O         142.4980  139.9950  165.2493 O.3     1  UNL1       -0.3489
     13 C         139.2922  139.7916  167.0672 C.3     1  UNL1        0.0316
     14 C         140.2064  140.6992  167.8357 C.ar    1  UNL1       -0.0117
     15 C         141.3609  141.3615  167.1440 C.ar    1  UNL1        0.0027
     16 C         142.2751  142.2690  167.9125 C.ar    1  UNL1        0.0001
     17 C         142.0348  142.5143  169.3727 C.ar    1  UNL1        0.0301
     18 C         140.8802  141.8520  170.0644 C.ar    1  UNL1        0.1493
     19 F         140.6399  142.0973  171.5245 F       1  UNL1       -0.2035
     20 C         139.9660  140.9444  169.2959 C.ar    1  UNL1        0.0916
     21 C         138.8115  140.2822  169.9875 C.1     1  UNL1        0.1024
     22 N         137.6570  139.6199  170.6792 N.1     1  UNL1       -0.1908
     23 C         141.2501  141.8869  157.7919 C.3     1  UNL1        0.1325
     24 C         139.8226  141.6436  157.4009 C.ar    1  UNL1        0.0874
     25 C         139.0802  140.4685  157.9650 C.ar    1  UNL1        0.1157
     26 N         137.6527  140.2253  157.5739 N.ar    1  UNL1       -0.2223
     27 C         136.9675  141.1570  156.6189 C.ar    1  UNL1        0.1865
     28 C         137.7097  142.3321  156.0548 C.ar    1  UNL1        0.1373
     29 N         139.1374  142.5754  156.4458 N.ar    1  UNL1       -0.2429
     30 N         135.5400  140.9138  156.2278 N.ar    1  UNL1       -0.1693
     31 C         134.8136  141.5683  155.0903 C.ar    1  UNL1        0.2273
     32 N         133.4127  141.0323  155.0651 N.ar    1  UNL1       -0.1044
     33 N         133.2734  140.0465  156.1871 N.ar    1  UNL1       -0.0222
     34 N         134.5881  139.9733  156.9057 N.ar    1  UNL1       -0.0371
@<TRIPOS>BOND
     1    13    14    1
     2    14    15   ar
     3     1    15    1
     4     1     2    1
     5     2     3    1
     6     3     4    1
     7     4     5    1
     8     5     6    1
     9     6     7   am
    10     7     8    2
    11     7    23    1
    12    23    24    1
    13    24    25   ar
    14    25    26   ar
    15    26    27   ar
    16    27    30    1
    17    30    31   ar
    18    31    32   ar
    19    32    33   ar
    20    33    34   ar
    21    27    28   ar
    22    28    29   ar
    23     6     9    1
    24    10     9    1
    25    10    11    1
    26    11    12    1
    27    15    16   ar
    28    16    17   ar
    29    17    18   ar
    30    18    19    1
    31    18    20   ar
    32    20    21    1
    33    21    22    3
    34    20    14   ar
    35    12     1    1
    36    10     3    1
    37    29    24   ar
    38    34    30   ar
@<TRIPOS>MOLECULE
*****
 34 38 0 0 0
SMALL
GASTEIGER

@<TRIPOS>ATOM
      1 C         143.9367  140.4254  158.2719 C.3     1  UNL1        0.1531
      2 C         143.0889  141.3218  159.1250 C.3     1  UNL1        0.1067
      3 N         142.1374  140.7286  160.1213 N.3     1  UNL1       -0.2665
      4 C         141.2895  141.6249  160.9745 C.3     1  UNL1        0.0940
      5 C         140.3380  141.0318  161.9708 C.3     1  UNL1        0.1107
      6 N         140.2344  139.5422  162.1141 N.am    1  UNL1       -0.2763
      7 C         139.2828  138.9490  163.1105 C.2     1  UNL1        0.2318
      8 O         139.1791  137.4595  163.2538 O.2     1  UNL1       -0.2744
      9 C         141.0822  138.6459  161.2610 C.3     1  UNL1        0.1119
     10 C         142.0337  139.2391  160.2646 C.3     1  UNL1        0.1075
     11 C         142.8815  138.3427  159.4116 C.3     1  UNL1        0.1601
     12 O         143.8330  138.9359  158.4152 O.3     1  UNL1       -0.3489
     13 C         143.9796  139.4091  155.4496 C.3     1  UNL1        0.0316
     14 C         144.9097  140.5105  155.8644 C.ar    1  UNL1       -0.0117
     15 C         144.8882  141.0186  157.2755 C.ar    1  UNL1        0.0027
     16 C         145.8183  142.1200  157.6903 C.ar    1  UNL1        0.0001
     17 C         146.7698  142.7131  156.6940 C.ar    1  UNL1        0.0301
     18 C         146.7913  142.2050  155.2828 C.ar    1  UNL1        0.1493
     19 F         147.7428  142.7982  154.2865 F       1  UNL1       -0.2035
     20 C         145.8612  141.1036  154.8680 C.ar    1  UNL1        0.0916
     21 C         145.8827  140.5955  153.4569 C.1     1  UNL1        0.1024
     22 N         145.9041  140.0873  152.0458 N.1     1  UNL1       -0.1908
     23 C         138.4350  139.8454  163.9636 C.3     1  UNL1        0.1325
     24 C         138.8448  140.1446  165.3751 C.ar    1  UNL1        0.0874
     25 C         138.5038  139.1832  166.4749 C.ar    1  UNL1        0.1157
     26 N         138.9136  139.4824  167.8865 N.ar    1  UNL1       -0.2223
     27 C         139.6644  140.7430  168.1983 C.ar    1  UNL1        0.1865
     28 C         140.0054  141.7044  167.0986 C.ar    1  UNL1        0.1373
     29 N         139.5956  141.4052  165.6869 N.ar    1  UNL1       -0.2429
     30 N         140.0742  141.0422  169.6098 N.ar    1  UNL1       -0.1693
     31 C         140.2834  140.0333  170.6999 C.ar    1  UNL1        0.2273
     32 N         140.6853  140.7705  171.9430 N.ar    1  UNL1       -0.1044
     33 N         140.7244  142.2350  171.6211 N.ar    1  UNL1       -0.0222
     34 N         140.3468  142.4030  170.1792 N.ar    1  UNL1       -0.0371
@<TRIPOS>BOND
     1    13    14    1
     2    14    15   ar
     3     1    15    1
     4     1     2    1
     5     2     3    1
     6     3     4    1
     7     4     5    1
     8     5     6    1
     9     6     7   am
    10     7     8    2
    11     7    23    1
    12    23    24    1
    13    24    25   ar
    14    25    26   ar
    15    26    27   ar
    16    27    30    1
    17    30    31   ar
    18    31    32   ar
    19    32    33   ar
    20    33    34   ar
    21    27    28   ar
    22    28    29   ar
    23     6     9    1
    24    10     9    1
    25    10    11    1
    26    11    12    1
    27    15    16   ar
    28    16    17   ar
    29    17    18   ar
    30    18    19    1
    31    18    20   ar
    32    20    21    1
    33    21    22    3
    34    20    14   ar
    35    12     1    1
    36    10     3    1
    37    29    24   ar
    38    34    30   ar
@<TRIPOS>MOLECULE
*****
 34 38 0 0 0
SMALL
GASTEIGER

@<TRIPOS>ATOM
      1 C         142.1526  137.5888  157.1882 C.3     1  UNL1        0.1531
      2 C         140.9376  137.7183  158.0582 C.3     1  UNL1        0.1067
      3 N         140.9478  138.6608  159.2250 N.3     1  UNL1       -0.2665
      4 C         139.7327  138.7903  160.0951 C.3     1  UNL1        0.0940
      5 C         139.7428  139.7328  161.2620 C.3     1  UNL1        0.1107
      6 N         140.9680  140.5459  161.5588 N.am    1  UNL1       -0.2763
      7 C         140.9780  141.4884  162.7257 C.2     1  UNL1        0.2318
      8 O         142.2031  142.3014  163.0225 O.2     1  UNL1       -0.2744
      9 C         142.1829  140.4164  160.6888 C.3     1  UNL1        0.1119
     10 C         142.1729  139.4739  159.5219 C.3     1  UNL1        0.1075
     11 C         143.3879  139.3444  158.6518 C.3     1  UNL1        0.1601
     12 O         143.3777  138.4019  157.4850 O.3     1  UNL1       -0.3489
     13 C         143.2879  134.8274  157.4806 C.3     1  UNL1        0.0316
     14 C         142.7102  135.2656  156.1675 C.ar    1  UNL1       -0.0117
     15 C         142.1426  136.6463  156.0213 C.ar    1  UNL1        0.0027
     16 C         141.5649  137.0845  154.7082 C.ar    1  UNL1        0.0001
     17 C         141.5548  136.1421  153.5413 C.ar    1  UNL1        0.0301
     18 C         142.1224  134.7613  153.6875 C.ar    1  UNL1        0.1493
     19 F         142.1123  133.8188  152.5207 F       1  UNL1       -0.2035
     20 C         142.7001  134.3231  155.0006 C.ar    1  UNL1        0.0916
     21 C         143.2677  132.9424  155.1468 C.1     1  UNL1        0.1024
     22 N         143.8354  131.5617  155.2931 N.1     1  UNL1       -0.1908
     23 C         139.7630  141.6179  163.5957 C.3     1  UNL1        0.1325
     24 C         139.9042  141.5973  165.0889 C.ar    1  UNL1        0.0874
     25 C         139.5975  140.3440  165.8540 C.ar    1  UNL1        0.1157
     26 N         139.7386  140.3234  167.3472 N.ar    1  UNL1       -0.2223
     27 C         140.1865  141.5560  168.0753 C.ar    1  UNL1        0.1865
     28 C         140.4932  142.8092  167.3102 C.ar    1  UNL1        0.1373
     29 N         140.3521  142.8298  165.8170 N.ar    1  UNL1       -0.2429
     30 N         140.3277  141.5353  169.5685 N.ar    1  UNL1       -0.1693
     31 C         140.6704  140.3385  170.4053 C.ar    1  UNL1        0.2273
     32 N         140.7054  140.7714  171.8411 N.ar    1  UNL1       -0.1044
     33 N         140.3844  142.2359  171.8916 N.ar    1  UNL1       -0.0222
     34 N         140.1510  142.7080  170.4871 N.ar    1  UNL1       -0.0371
@<TRIPOS>BOND
     1    13    14    1
     2    14    15   ar
     3     1    15    1
     4     1     2    1
     5     2     3    1
     6     3     4    1
     7     4     5    1
     8     5     6    1
     9     6     7   am
    10     7     8    2
    11     7    23    1
    12    23    24    1
    13    24    25   ar
    14    25    26   ar
    15    26    27   ar
    16    27    30    1
    17    30    31   ar
    18    31    32   ar
    19    32    33   ar
    20    33    34   ar
    21    27    28   ar
    22    28    29   ar
    23     6     9    1
    24    10     9    1
    25    10    11    1
    26    11    12    1
    27    15    16   ar
    28    16    17   ar
    29    17    18   ar
    30    18    19    1
    31    18    20   ar
    32    20    21    1
    33    21    22    3
    34    20    14   ar
    35    12     1    1
    36    10     3    1
    37    29    24   ar
    38    34    30   ar
@<TRIPOS>MOLECULE
*****
 34 38 0 0 0
SMALL
GASTEIGER

@<TRIPOS>ATOM
      1 C         142.5142  140.2349  165.7971 C.3     1  UNL1        0.1531
      2 C         141.5691  139.4471  164.9391 C.3     1  UNL1        0.1067
      3 N         141.8531  139.2711  163.4768 N.3     1  UNL1       -0.2665
      4 C         140.9080  138.4833  162.6188 C.3     1  UNL1        0.0940
      5 C         141.1920  138.3073  161.1565 C.3     1  UNL1        0.1107
      6 N         142.4210  138.9192  160.5522 N.am    1  UNL1       -0.2763
      7 C         142.7049  138.7432  159.0898 C.2     1  UNL1        0.2318
      8 O         143.9339  139.3551  158.4855 O.2     1  UNL1       -0.2744
      9 C         143.3660  139.7070  161.4101 C.3     1  UNL1        0.1119
     10 C         143.0821  139.8830  162.8725 C.3     1  UNL1        0.1075
     11 C         144.0271  140.6708  163.7305 C.3     1  UNL1        0.1601
     12 O         143.7432  140.8468  165.1928 O.3     1  UNL1       -0.3489
     13 C         141.2513  142.7703  166.7855 C.3     1  UNL1        0.0316
     14 C         141.5988  141.6786  167.7537 C.ar    1  UNL1       -0.0117
     15 C         142.2303  140.4109  167.2595 C.ar    1  UNL1        0.0027
     16 C         142.5778  139.3191  168.2277 C.ar    1  UNL1        0.0001
     17 C         142.2939  139.4951  169.6900 C.ar    1  UNL1        0.0301
     18 C         141.6624  140.7628  170.1842 C.ar    1  UNL1        0.1493
     19 F         141.3785  140.9388  171.6465 F       1  UNL1       -0.2035
     20 C         141.3149  141.8546  169.2161 C.ar    1  UNL1        0.0916
     21 C         140.6835  143.1222  169.7102 C.1     1  UNL1        0.1024
     22 N         140.0521  144.3899  170.2044 N.1     1  UNL1       -0.1908
     23 C         141.7599  137.9554  158.2318 C.3     1  UNL1        0.1325
     24 C         140.6005  138.6392  157.5698 C.ar    1  UNL1        0.0874
     25 C         139.8141  137.9255  156.5104 C.ar    1  UNL1        0.1157
     26 N         138.6547  138.6093  155.8484 N.ar    1  UNL1       -0.2223
     27 C         138.2818  140.0068  156.2457 C.ar    1  UNL1        0.1865
     28 C         139.0681  140.7205  157.3051 C.ar    1  UNL1        0.1373
     29 N         140.2275  140.0367  157.9671 N.ar    1  UNL1       -0.2429
     30 N         137.1224  140.6906  155.5838 N.ar    1  UNL1       -0.1693
     31 C         135.7736  140.9295  156.1949 C.ar    1  UNL1        0.2273
     32 N         134.9258  141.6422  155.1832 N.ar    1  UNL1       -0.1044
     33 N         135.7508  141.8437  153.9467 N.ar    1  UNL1       -0.0222
     34 N         137.1083  141.2557  154.1942 N.ar    1  UNL1       -0.0371
@<TRIPOS>BOND
     1    13    14    1
     2    14    15   ar
     3     1    15    1
     4     1     2    1
     5     2     3    1
     6     3     4    1
     7     4     5    1
     8     5     6    1
     9     6     7   am
    10     7     8    2
    11     7    23    1
    12    23    24    1
    13    24    25   ar
    14    25    26   ar
    15    26    27   ar
    16    27    30    1
    17    30    31   ar
    18    31    32   ar
    19    32    33   ar
    20    33    34   ar
    21    27    28   ar
    22    28    29   ar
    23     6     9    1
    24    10     9    1
    25    10    11    1
    26    11    12    1
    27    15    16   ar
    28    16    17   ar
    29    17    18   ar
    30    18    19    1
    31    18    20   ar
    32    20    21    1
    33    21    22    3
    34    20    14   ar
    35    12     1    1
    36    10     3    1
    37    29    24   ar
    38    34    30   ar
@<TRIPOS>MOLECULE
*****
 34 38 0 0 0
SMALL
GASTEIGER

@<TRIPOS>ATOM
      1 C         140.4507  140.1863  165.5395 C.3     1  UNL1        0.1531
      2 C         139.4568  140.9961  164.7608 C.3     1  UNL1        0.1067
      3 N         139.2590  140.7348  163.2971 N.3     1  UNL1       -0.2665
      4 C         138.2651  141.5446  162.5183 C.3     1  UNL1        0.0940
      5 C         138.0672  141.2834  161.0545 C.3     1  UNL1        0.1107
      6 N         138.8634  140.2124  160.3695 N.am    1  UNL1       -0.2763
      7 C         138.6655  139.9512  158.9057 C.2     1  UNL1        0.2318
      8 O         139.4616  138.8803  158.2206 O.2     1  UNL1       -0.2744
      9 C         139.8573  139.4027  161.1482 C.3     1  UNL1        0.1119
     10 C         140.0551  139.6639  162.6120 C.3     1  UNL1        0.1075
     11 C         141.0491  138.8542  163.3907 C.3     1  UNL1        0.1601
     12 O         141.2469  139.1154  164.8545 O.3     1  UNL1       -0.3489
     13 C         142.9140  141.6112  166.4895 C.3     1  UNL1        0.0316
     14 C         141.8802  141.1599  167.4783 C.ar    1  UNL1       -0.0117
     15 C         140.6486  140.4475  167.0033 C.ar    1  UNL1        0.0027
     16 C         139.6148  139.9963  167.9921 C.ar    1  UNL1        0.0001
     17 C         139.8126  140.2575  169.4559 C.ar    1  UNL1        0.0301
     18 C         141.0442  140.9699  169.9309 C.ar    1  UNL1        0.1493
     19 F         141.2420  141.2311  171.3947 F       1  UNL1       -0.2035
     20 C         142.0780  141.4211  168.9421 C.ar    1  UNL1        0.0916
     21 C         143.3096  142.1335  169.4171 C.1     1  UNL1        0.1024
     22 N         144.5412  142.8459  169.8921 N.1     1  UNL1       -0.1908
     23 C         137.6716  140.7609  158.1270 C.3     1  UNL1        0.1325
     24 C         138.1081  142.0150  157.4293 C.ar    1  UNL1        0.0874
     25 C         137.2129  142.6572  156.4112 C.ar    1  UNL1        0.1157
     26 N         137.6494  143.9113  155.7135 N.ar    1  UNL1       -0.2223
     27 C         138.9810  144.5231  156.0338 C.ar    1  UNL1        0.1865
     28 C         139.8761  143.8809  157.0517 C.ar    1  UNL1        0.1373
     29 N         139.4396  142.6268  157.7495 N.ar    1  UNL1       -0.2429
     30 N         139.4175  145.7771  155.3360 N.ar    1  UNL1       -0.1693
     31 C         138.8964  147.1590  155.5983 C.ar    1  UNL1        0.2273
     32 N         139.6086  148.1055  154.6778 N.ar    1  UNL1       -0.1044
     33 N         140.5699  147.3084  153.8467 N.ar    1  UNL1       -0.0222
     34 N         140.4518  145.8695  154.2535 N.ar    1  UNL1       -0.0371
@<TRIPOS>BOND
     1    13    14    1
     2    14    15   ar
     3     1    15    1
     4     1     2    1
     5     2     3    1
     6     3     4    1
     7     4     5    1
     8     5     6    1
     9     6     7   am
    10     7     8    2
    11     7    23    1
    12    23    24    1
    13    24    25   ar
    14    25    26   ar
    15    26    27   ar
    16    27    30    1
    17    30    31   ar
    18    31    32   ar
    19    32    33   ar
    20    33    34   ar
    21    27    28   ar
    22    28    29   ar
    23     6     9    1
    24    10     9    1
    25    10    11    1
    26    11    12    1
    27    15    16   ar
    28    16    17   ar
    29    17    18   ar
    30    18    19    1
    31    18    20   ar
    32    20    21    1
    33    21    22    3
    34    20    14   ar
    35    12     1    1
    36    10     3    1
    37    29    24   ar
    38    34    30   ar
