@<TRIPOS>MOLECULE
*****
 38 42 0 0 0
SMALL
GASTEIGER

@<TRIPOS>ATOM
      1 N         142.6019  139.4773  166.0487 N.3     1  UNL1       -0.2689
      2 C         142.1924  138.2741  165.2521 C.3     1  UNL1        0.0724
      3 C         142.2074  138.3266  163.7531 C.3     1  UNL1        0.0175
      4 C         142.6319  139.5821  163.0508 C.3     1  UNL1        0.0060
      5 C         143.0414  140.7853  163.8474 C.3     1  UNL1        0.0175
      6 C         143.0264  140.7329  165.3464 C.3     1  UNL1        0.0724
      7 C         142.2224  138.3790  162.2541 C.3     1  UNL1        0.0217
      8 C         142.2374  138.4314  160.7551 C.3     1  UNL1        0.0938
      9 N         142.6619  139.6870  160.0527 N.am    1  UNL1       -0.2748
     10 C         142.6769  139.7394  158.5537 C.2     1  UNL1        0.2668
     11 O         143.1014  140.9950  157.8513 O.2     1  UNL1       -0.2683
     12 C         143.0714  140.8901  160.8494 C.3     1  UNL1        0.0938
     13 C         143.0564  140.8377  162.3484 C.3     1  UNL1        0.0217
     14 C         142.2673  138.5362  157.7570 C.ar    1  UNL1        0.1359
     15 C         140.8357  138.3614  157.3448 C.ar    1  UNL1        0.0378
     16 C         140.4262  137.1583  156.5481 C.ar    1  UNL1        0.0447
     17 N         138.9946  136.9835  156.1359 N.pl3   1  UNL1       -0.3569
     18 C         141.4483  136.1298  156.1637 C.ar    1  UNL1        0.0348
     19 C         142.8799  136.3046  156.5760 C.ar    1  UNL1        0.1003
     20 N         143.2894  137.5079  157.3727 N.ar    1  UNL1       -0.2392
     21 H         138.3238  137.6584  156.3882 H       1  UNL1        0.1424
     22 H         138.7259  136.1938  155.6130 H       1  UNL1        0.1424
     23 C         142.5869  139.4249  167.5478 C.3     1  UNL1        0.1022
     24 C         140.7354  141.0123  168.4433 C.ar    1  UNL1        0.1427
     25 C         140.3319  142.2227  169.2322 C.ar    1  UNL1        0.0372
     26 C         141.3761  143.0559  169.9141 C.ar    1  UNL1        0.0031
     27 C         142.8240  142.6788  169.8073 C.ar    1  UNL1       -0.0001
     28 C         143.2276  141.4685  169.0186 C.ar    1  UNL1        0.0001
     29 C         142.1833  140.6352  168.3366 C.ar    1  UNL1        0.0284
     30 O         139.6911  140.1790  167.7614 O.3     1  UNL1       -0.4507
     31 C         138.7087  139.3441  165.5058 C.ar    1  UNL1        0.1730
     32 C         138.3795  139.5876  164.0628 C.ar    1  UNL1        0.0401
     33 C         138.7036  140.9095  163.4322 C.ar    1  UNL1        0.0033
     34 C         139.3570  141.9879  164.2448 C.ar    1  UNL1        0.0033
     35 C         139.6861  141.7445  165.6878 C.ar    1  UNL1        0.0406
     36 C         139.3620  140.4225  166.3183 C.ar    1  UNL1        0.1789
     37 C         137.2850  137.9252  167.1519 C.3     1  UNL1        0.2526
     38 O         138.3845  138.0222  166.1363 O.3     1  UNL1       -0.4684
@<TRIPOS>BOND
     1    37    38    1
     2    38    31    1
     3    31    32   ar
     4    32    33   ar
     5    33    34   ar
     6    34    35   ar
     7    35    36   ar
     8    36    30    1
     9    30    24    1
    10    24    25   ar
    11    25    26   ar
    12    26    27   ar
    13    27    28   ar
    14    28    29   ar
    15    29    23    1
    16    23     1    1
    17     1     2    1
    18     2     3    1
    19     3     4    1
    20     4     5    1
    21     5     6    1
    22     4     7    1
    23     7     8    1
    24     8     9    1
    25     9    10   am
    26    10    11    2
    27    10    14    1
    28    14    15   ar
    29    15    16   ar
    30    16    17    1
    31    16    18   ar
    32    18    19   ar
    33    19    20   ar
    34     9    12    1
    35    12    13    1
    36    36    31   ar
    37    29    24   ar
    38     6     1    1
    39    20    14   ar
    40    13     4    1
    41    17    21    1
    42    17    22    1
@<TRIPOS>MOLECULE
*****
 38 42 0 0 0
SMALL
GASTEIGER

@<TRIPOS>ATOM
      1 N         142.6341  140.2231  160.6484 N.3     1  UNL1       -0.2689
      2 C         142.0503  141.3200  161.4886 C.3     1  UNL1        0.0724
      3 C         142.0553  141.2029  162.9840 C.3     1  UNL1        0.0175
      4 C         142.6441  139.9888  163.6392 C.3     1  UNL1        0.0060
      5 C         143.2279  138.8919  162.7990 C.3     1  UNL1        0.0175
      6 C         143.2229  139.0091  161.3036 C.3     1  UNL1        0.0724
      7 C         142.0602  141.0857  164.4794 C.3     1  UNL1        0.0217
      8 C         142.0652  140.9685  165.9748 C.3     1  UNL1        0.0938
      9 N         142.6540  139.7544  166.6300 N.am    1  UNL1       -0.2748
     10 C         142.6590  139.6373  168.1255 C.2     1  UNL1        0.2668
     11 O         143.2478  138.4232  168.7807 O.2     1  UNL1       -0.2683
     12 C         143.2378  138.6575  165.7899 C.3     1  UNL1        0.0938
     13 C         143.2329  138.7747  164.2944 C.3     1  UNL1        0.0217
     14 C         142.0752  140.7342  168.9656 C.ar    1  UNL1        0.1359
     15 C         142.9765  141.7420  169.6153 C.ar    1  UNL1        0.0378
     16 C         142.3927  142.8389  170.4554 C.ar    1  UNL1        0.0447
     17 N         143.2940  143.8466  171.1051 N.pl3   1  UNL1       -0.3569
     18 C         140.9074  142.9281  170.6460 C.ar    1  UNL1        0.0348
     19 C         140.0061  141.9203  169.9963 C.ar    1  UNL1        0.1003
     20 N         140.5900  140.8234  169.1561 N.ar    1  UNL1       -0.2392
     21 H         144.2688  143.7881  170.9800 H       1  UNL1        0.1424
     22 H         142.9108  144.5666  171.6565 H       1  UNL1        0.1424
     23 C         142.6291  140.3403  159.1530 C.3     1  UNL1        0.1022
     24 C         140.5114  139.0630  158.3570 C.ar    1  UNL1        0.1427
     25 C         139.8794  137.9885  157.5226 C.ar    1  UNL1        0.0372
     26 C         140.7330  137.1171  156.6498 C.ar    1  UNL1        0.0031
     27 C         142.2187  137.3200  156.6114 C.ar    1  UNL1       -0.0001
     28 C         142.8508  138.3944  157.4458 C.ar    1  UNL1        0.0001
     29 C         141.9971  139.2659  158.3186 C.ar    1  UNL1        0.0284
     30 O         139.6577  139.9344  159.2298 O.3     1  UNL1       -0.4507
     31 C         138.5135  140.3946  161.5165 C.ar    1  UNL1        0.1730
     32 C         138.1799  139.9601  162.9129 C.ar    1  UNL1        0.0401
     33 C         138.6568  138.6311  163.4190 C.ar    1  UNL1        0.0033
     34 C         139.4674  137.7365  162.5287 C.ar    1  UNL1        0.0033
     35 C         139.8010  138.1709  161.1323 C.ar    1  UNL1        0.0406
     36 C         139.3241  139.5000  160.6262 C.ar    1  UNL1        0.1789
     37 C         138.1989  142.9509  161.8573 C.3     1  UNL1        0.2526
     38 O         138.0365  141.7237  161.0104 O.3     1  UNL1       -0.4684
@<TRIPOS>BOND
     1    37    38    1
     2    38    31    1
     3    31    32   ar
     4    32    33   ar
     5    33    34   ar
     6    34    35   ar
     7    35    36   ar
     8    36    30    1
     9    30    24    1
    10    24    25   ar
    11    25    26   ar
    12    26    27   ar
    13    27    28   ar
    14    28    29   ar
    15    29    23    1
    16    23     1    1
    17     1     2    1
    18     2     3    1
    19     3     4    1
    20     4     5    1
    21     5     6    1
    22     4     7    1
    23     7     8    1
    24     8     9    1
    25     9    10   am
    26    10    11    2
    27    10    14    1
    28    14    15   ar
    29    15    16   ar
    30    16    17    1
    31    16    18   ar
    32    18    19   ar
    33    19    20   ar
    34     9    12    1
    35    12    13    1
    36    36    31   ar
    37    29    24   ar
    38     6     1    1
    39    20    14   ar
    40    13     4    1
    41    17    21    1
    42    17    22    1
@<TRIPOS>MOLECULE
*****
 38 42 0 0 0
SMALL
GASTEIGER

@<TRIPOS>ATOM
      1 N         141.9716  140.4366  160.9330 N.3     1  UNL1       -0.2689
      2 C         141.3180  141.3396  161.9367 C.3     1  UNL1        0.0724
      3 C         141.4703  141.0652  163.4034 C.3     1  UNL1        0.0175
      4 C         142.2762  139.8878  163.8665 C.3     1  UNL1        0.0060
      5 C         142.9298  138.9849  162.8628 C.3     1  UNL1        0.0175
      6 C         142.7775  139.2593  161.3960 C.3     1  UNL1        0.0724
      7 C         141.6225  140.7908  164.8703 C.3     1  UNL1        0.0217
      8 C         141.7748  140.5164  166.3371 C.3     1  UNL1        0.0938
      9 N         142.5807  139.3390  166.8001 N.am    1  UNL1       -0.2748
     10 C         142.7330  139.0646  168.2670 C.2     1  UNL1        0.2668
     11 O         143.5388  137.8873  168.7301 O.2     1  UNL1       -0.2683
     12 C         143.2343  138.4361  165.7964 C.3     1  UNL1        0.0938
     13 C         143.0821  138.7105  164.3296 C.3     1  UNL1        0.0217
     14 C         142.0793  139.9676  169.2707 C.ar    1  UNL1        0.1359
     15 C         142.7941  141.1950  169.7528 C.ar    1  UNL1        0.0378
     16 C         142.1405  142.0980  170.7565 C.ar    1  UNL1        0.0447
     17 N         142.8553  143.3254  171.2386 N.pl3   1  UNL1       -0.3569
     18 C         140.7720  141.7735  171.2782 C.ar    1  UNL1        0.0348
     19 C         140.0573  140.5460  170.7961 C.ar    1  UNL1        0.1003
     20 N         140.7109  139.6430  169.7923 N.ar    1  UNL1       -0.2392
     21 H         143.7535  143.5384  170.8962 H       1  UNL1        0.1424
     22 H         142.4263  143.9181  171.8974 H       1  UNL1        0.1424
     23 C         141.8194  140.7110  159.4661 C.3     1  UNL1        0.1022
     24 C         143.8472  142.2190  158.8628 C.ar    1  UNL1        0.1427
     25 C         145.0585  142.4914  158.0210 C.ar    1  UNL1        0.0372
     26 C         145.4533  141.5284  156.9409 C.ar    1  UNL1        0.0031
     27 C         144.6367  140.2929  156.7025 C.ar    1  UNL1       -0.0001
     28 C         143.4255  140.0204  157.5442 C.ar    1  UNL1        0.0001
     29 C         143.0307  140.9835  158.6244 C.ar    1  UNL1        0.0284
     30 O         143.4525  143.1820  159.9429 O.3     1  UNL1       -0.4507
     31 C         143.5931  143.9726  162.4137 C.ar    1  UNL1        0.1730
     32 C         144.1465  143.8140  163.7989 C.ar    1  UNL1        0.0401
     33 C         145.1125  142.7063  164.0984 C.ar    1  UNL1        0.0033
     34 C         145.5252  141.7570  163.0127 C.ar    1  UNL1        0.0033
     35 C         144.9718  141.9156  161.6275 C.ar    1  UNL1        0.0406
     36 C         144.0058  143.0234  161.3281 C.ar    1  UNL1        0.1789
     37 C         141.1667  144.9013  162.4059 C.3     1  UNL1        0.2526
     38 O         142.6271  145.0804  162.1143 O.3     1  UNL1       -0.4684
@<TRIPOS>BOND
     1    37    38    1
     2    38    31    1
     3    31    32   ar
     4    32    33   ar
     5    33    34   ar
     6    34    35   ar
     7    35    36   ar
     8    36    30    1
     9    30    24    1
    10    24    25   ar
    11    25    26   ar
    12    26    27   ar
    13    27    28   ar
    14    28    29   ar
    15    29    23    1
    16    23     1    1
    17     1     2    1
    18     2     3    1
    19     3     4    1
    20     4     5    1
    21     5     6    1
    22     4     7    1
    23     7     8    1
    24     8     9    1
    25     9    10   am
    26    10    11    2
    27    10    14    1
    28    14    15   ar
    29    15    16   ar
    30    16    17    1
    31    16    18   ar
    32    18    19   ar
    33    19    20   ar
    34     9    12    1
    35    12    13    1
    36    36    31   ar
    37    29    24   ar
    38     6     1    1
    39    20    14   ar
    40    13     4    1
    41    17    21    1
    42    17    22    1
@<TRIPOS>MOLECULE
*****
 38 42 0 0 0
SMALL
GASTEIGER

@<TRIPOS>ATOM
      1 N         140.2839  139.9921  161.1486 N.3     1  UNL1       -0.2689
      2 C         141.2566  140.6159  162.1049 C.3     1  UNL1        0.0724
      3 C         140.9874  140.5775  163.5801 C.3     1  UNL1        0.0175
      4 C         139.7455  139.9153  164.0988 C.3     1  UNL1        0.0060
      5 C         138.7728  139.2915  163.1425 C.3     1  UNL1        0.0175
      6 C         139.0420  139.3299  161.6674 C.3     1  UNL1        0.0724
      7 C         140.7182  140.5391  165.0553 C.3     1  UNL1        0.0217
      8 C         140.4490  140.5008  166.5304 C.3     1  UNL1        0.0938
      9 N         139.2071  139.8386  167.0492 N.am    1  UNL1       -0.2748
     10 C         138.9379  139.8002  168.5244 C.2     1  UNL1        0.2668
     11 O         137.6960  139.1381  169.0431 O.2     1  UNL1       -0.2683
     12 C         138.2344  139.2148  166.0928 C.3     1  UNL1        0.0938
     13 C         138.5036  139.2531  164.6176 C.3     1  UNL1        0.0217
     14 C         139.9107  140.4240  169.4807 C.ar    1  UNL1        0.1359
     15 C         141.2074  139.7352  169.7874 C.ar    1  UNL1        0.0378
     16 C         142.1801  140.3590  170.7437 C.ar    1  UNL1        0.0447
     17 N         143.4768  139.6702  171.0505 N.pl3   1  UNL1       -0.3569
     18 C         141.8562  141.6717  171.3934 C.ar    1  UNL1        0.0348
     19 C         140.5594  142.3605  171.0867 C.ar    1  UNL1        0.1003
     20 N         139.5867  141.7366  170.1303 N.ar    1  UNL1       -0.2392
     21 H         143.6895  138.8087  170.6241 H       1  UNL1        0.1424
     22 H         144.1153  140.0797  171.6781 H       1  UNL1        0.1424
     23 C         140.5531  140.0304  159.6734 C.3     1  UNL1        0.1022
     24 C         139.4143  142.2165  158.8524 C.ar    1  UNL1        0.1427
     25 C         138.4578  142.9170  157.9334 C.ar    1  UNL1        0.0372
     26 C         137.6836  142.1318  156.9165 C.ar    1  UNL1        0.0031
     27 C         137.8660  140.6461  156.8186 C.ar    1  UNL1       -0.0001
     28 C         138.8224  139.9457  157.7375 C.ar    1  UNL1        0.0001
     29 C         139.5966  140.7309  158.7545 C.ar    1  UNL1        0.0284
     30 O         140.1885  143.0017  159.8693 O.3     1  UNL1       -0.4507
     31 C         140.2565  144.2914  162.1236 C.ar    1  UNL1        0.1730
     32 C         139.6252  144.6449  163.4376 C.ar    1  UNL1        0.0401
     33 C         138.2945  144.0622  163.8112 C.ar    1  UNL1        0.0033
     34 C         137.5951  143.1259  162.8708 C.ar    1  UNL1        0.0033
     35 C         138.2264  142.7724  161.5569 C.ar    1  UNL1        0.0406
     36 C         139.5571  143.3552  161.1833 C.ar    1  UNL1        0.1789
     37 C         142.8239  144.4537  162.4875 C.3     1  UNL1        0.2526
     38 O         141.5873  144.8742  161.7500 O.3     1  UNL1       -0.4684
@<TRIPOS>BOND
     1    37    38    1
     2    38    31    1
     3    31    32   ar
     4    32    33   ar
     5    33    34   ar
     6    34    35   ar
     7    35    36   ar
     8    36    30    1
     9    30    24    1
    10    24    25   ar
    11    25    26   ar
    12    26    27   ar
    13    27    28   ar
    14    28    29   ar
    15    29    23    1
    16    23     1    1
    17     1     2    1
    18     2     3    1
    19     3     4    1
    20     4     5    1
    21     5     6    1
    22     4     7    1
    23     7     8    1
    24     8     9    1
    25     9    10   am
    26    10    11    2
    27    10    14    1
    28    14    15   ar
    29    15    16   ar
    30    16    17    1
    31    16    18   ar
    32    18    19   ar
    33    19    20   ar
    34     9    12    1
    35    12    13    1
    36    36    31   ar
    37    29    24   ar
    38     6     1    1
    39    20    14   ar
    40    13     4    1
    41    17    21    1
    42    17    22    1
@<TRIPOS>MOLECULE
*****
 38 42 0 0 0
SMALL
GASTEIGER

@<TRIPOS>ATOM
      1 N         142.6387  139.5041  166.3602 N.3     1  UNL1       -0.2689
      2 C         143.3428  140.5754  165.5815 C.3     1  UNL1        0.0724
      3 C         143.3679  140.5195  164.0828 C.3     1  UNL1        0.0175
      4 C         142.6889  139.3923  163.3628 C.3     1  UNL1        0.0060
      5 C         141.9848  138.3210  164.1415 C.3     1  UNL1        0.0175
      6 C         141.9597  138.3769  165.6402 C.3     1  UNL1        0.0724
      7 C         143.3930  140.4637  162.5840 C.3     1  UNL1        0.0217
      8 C         143.4181  140.4078  161.0852 C.3     1  UNL1        0.0938
      9 N         142.7391  139.2806  160.3653 N.am    1  UNL1       -0.2748
     10 C         142.7642  139.2247  158.8665 C.2     1  UNL1        0.2668
     11 O         142.0852  138.0975  158.1465 O.2     1  UNL1       -0.2683
     12 C         142.0350  138.2093  161.1440 C.3     1  UNL1        0.0938
     13 C         142.0099  138.2651  162.6428 C.3     1  UNL1        0.0217
     14 C         143.4683  140.2961  158.0877 C.ar    1  UNL1        0.1359
     15 C         142.8810  141.6740  158.0077 C.ar    1  UNL1        0.0378
     16 C         143.5851  142.7453  157.2290 C.ar    1  UNL1        0.0447
     17 N         142.9978  144.1232  157.1489 N.pl3   1  UNL1       -0.3569
     18 C         144.8766  142.4387  156.5302 C.ar    1  UNL1        0.0348
     19 C         145.4639  141.0608  156.6102 C.ar    1  UNL1        0.1003
     20 N         144.7597  139.9895  157.3890 N.ar    1  UNL1       -0.2392
     21 H         142.1502  144.3245  157.6075 H       1  UNL1        0.1424
     22 H         143.4599  144.8264  156.6378 H       1  UNL1        0.1424
     23 C         142.6135  139.5599  167.8590 C.3     1  UNL1        0.1022
     24 C         140.7797  141.2855  168.4987 C.ar    1  UNL1        0.1427
     25 C         140.3720  142.5498  169.1955 C.ar    1  UNL1        0.0372
     26 C         141.3905  143.3527  169.9491 C.ar    1  UNL1        0.0031
     27 C         142.8166  142.8914  170.0061 C.ar    1  UNL1       -0.0001
     28 C         143.2243  141.6272  169.3094 C.ar    1  UNL1        0.0001
     29 C         142.2058  140.8242  168.5557 C.ar    1  UNL1        0.0284
     30 O         139.7612  140.4826  167.7451 O.3     1  UNL1       -0.4507
     31 C         138.5294  139.9358  165.5239 C.ar    1  UNL1        0.1730
     32 C         138.2254  140.2642  164.0922 C.ar    1  UNL1        0.0401
     33 C         138.8491  141.4677  163.4500 C.ar    1  UNL1        0.0033
     34 C         139.7769  142.3429  164.2395 C.ar    1  UNL1        0.0033
     35 C         140.0810  142.0146  165.6712 C.ar    1  UNL1        0.0406
     36 C         139.4572  140.8110  166.3134 C.ar    1  UNL1        0.1789
     37 C         138.3540  137.3557  165.7735 C.3     1  UNL1        0.2526
     38 O         137.9057  138.7322  166.1661 O.3     1  UNL1       -0.4684
@<TRIPOS>BOND
     1    37    38    1
     2    38    31    1
     3    31    32   ar
     4    32    33   ar
     5    33    34   ar
     6    34    35   ar
     7    35    36   ar
     8    36    30    1
     9    30    24    1
    10    24    25   ar
    11    25    26   ar
    12    26    27   ar
    13    27    28   ar
    14    28    29   ar
    15    29    23    1
    16    23     1    1
    17     1     2    1
    18     2     3    1
    19     3     4    1
    20     4     5    1
    21     5     6    1
    22     4     7    1
    23     7     8    1
    24     8     9    1
    25     9    10   am
    26    10    11    2
    27    10    14    1
    28    14    15   ar
    29    15    16   ar
    30    16    17    1
    31    16    18   ar
    32    18    19   ar
    33    19    20   ar
    34     9    12    1
    35    12    13    1
    36    36    31   ar
    37    29    24   ar
    38     6     1    1
    39    20    14   ar
    40    13     4    1
    41    17    21    1
    42    17    22    1
@<TRIPOS>MOLECULE
*****
 38 42 0 0 0
SMALL
GASTEIGER

@<TRIPOS>ATOM
      1 N         142.3189  139.2296  165.6760 N.3     1  UNL1       -0.2689
      2 C         143.4495  139.0410  164.7085 C.3     1  UNL1        0.0724
      3 C         143.1632  138.8487  163.2487 C.3     1  UNL1        0.0175
      4 C         141.7463  138.8451  162.7564 C.3     1  UNL1        0.0060
      5 C         140.6157  139.0337  163.7238 C.3     1  UNL1        0.0175
      6 C         140.9020  139.2259  165.1836 C.3     1  UNL1        0.0724
      7 C         142.8770  138.6565  161.7888 C.3     1  UNL1        0.0217
      8 C         142.5907  138.4643  160.3290 C.3     1  UNL1        0.0938
      9 N         141.1739  138.4607  159.8367 N.am    1  UNL1       -0.2748
     10 C         140.8876  138.2685  158.3768 C.2     1  UNL1        0.2668
     11 O         139.4707  138.2648  157.8845 O.2     1  UNL1       -0.2683
     12 C         140.0432  138.6493  160.8042 C.3     1  UNL1        0.0938
     13 C         140.3294  138.8415  162.2640 C.3     1  UNL1        0.0217
     14 C         142.0183  138.0799  157.4093 C.ar    1  UNL1        0.1359
     15 C         142.4939  136.6979  157.0718 C.ar    1  UNL1        0.0378
     16 C         143.6246  136.5093  156.1043 C.ar    1  UNL1        0.0447
     17 N         144.1002  135.1273  155.7668 N.pl3   1  UNL1       -0.3569
     18 C         144.2796  137.7027  155.4743 C.ar    1  UNL1        0.0348
     19 C         143.8039  139.0846  155.8119 C.ar    1  UNL1        0.1003
     20 N         142.6732  139.2732  156.7794 N.ar    1  UNL1       -0.2392
     21 H         143.6703  134.3441  156.1802 H       1  UNL1        0.1424
     22 H         144.8423  135.0036  155.1318 H       1  UNL1        0.1424
     23 C         142.6051  139.4218  167.1359 C.3     1  UNL1        0.1022
     24 C         141.8780  141.8387  167.7522 C.ar    1  UNL1        0.1427
     25 C         141.0323  142.7733  168.5657 C.ar    1  UNL1        0.0372
     26 C         140.0684  142.2255  169.5760 C.ar    1  UNL1        0.0031
     27 C         139.9500  140.7433  169.7729 C.ar    1  UNL1       -0.0001
     28 C         140.7955  139.8087  168.9596 C.ar    1  UNL1        0.0001
     29 C         141.7595  140.3564  167.9492 C.ar    1  UNL1        0.0284
     30 O         142.8419  142.3864  166.7419 O.3     1  UNL1       -0.4507
     31 C         143.4378  142.5188  164.2166 C.ar    1  UNL1        0.1730
     32 C         143.0115  142.6886  162.7885 C.ar    1  UNL1        0.0401
     33 C         141.5633  142.8958  162.4576 C.ar    1  UNL1        0.0033
     34 C         140.5411  142.9332  163.5548 C.ar    1  UNL1        0.0033
     35 C         140.9673  142.7634  164.9830 C.ar    1  UNL1        0.0406
     36 C         142.4157  142.5562  165.3138 C.ar    1  UNL1        0.1789
     37 C         145.7971  141.6585  163.5508 C.3     1  UNL1        0.2526
     38 O         144.8861  142.3116  164.5475 O.3     1  UNL1       -0.4684
@<TRIPOS>BOND
     1    37    38    1
     2    38    31    1
     3    31    32   ar
     4    32    33   ar
     5    33    34   ar
     6    34    35   ar
     7    35    36   ar
     8    36    30    1
     9    30    24    1
    10    24    25   ar
    11    25    26   ar
    12    26    27   ar
    13    27    28   ar
    14    28    29   ar
    15    29    23    1
    16    23     1    1
    17     1     2    1
    18     2     3    1
    19     3     4    1
    20     4     5    1
    21     5     6    1
    22     4     7    1
    23     7     8    1
    24     8     9    1
    25     9    10   am
    26    10    11    2
    27    10    14    1
    28    14    15   ar
    29    15    16   ar
    30    16    17    1
    31    16    18   ar
    32    18    19   ar
    33    19    20   ar
    34     9    12    1
    35    12    13    1
    36    36    31   ar
    37    29    24   ar
    38     6     1    1
    39    20    14   ar
    40    13     4    1
    41    17    21    1
    42    17    22    1
@<TRIPOS>MOLECULE
*****
 38 42 0 0 0
SMALL
GASTEIGER

@<TRIPOS>ATOM
      1 N         140.9832  142.4394  160.9743 N.3     1  UNL1       -0.2689
      2 C         141.7626  142.9450  162.1519 C.3     1  UNL1        0.0724
      3 C         141.4439  142.4489  163.5311 C.3     1  UNL1        0.0175
      4 C         140.3458  141.4471  163.7327 C.3     1  UNL1        0.0060
      5 C         139.5664  140.9415  162.5551 C.3     1  UNL1        0.0175
      6 C         139.8851  141.4376  161.1759 C.3     1  UNL1        0.0724
      7 C         141.1253  141.9528  164.9104 C.3     1  UNL1        0.0217
      8 C         140.8066  141.4566  166.2896 C.3     1  UNL1        0.0938
      9 N         139.7085  140.4549  166.4912 N.am    1  UNL1       -0.2748
     10 C         139.3898  139.9587  167.8705 C.2     1  UNL1        0.2668
     11 O         138.2917  138.9570  168.0722 O.2     1  UNL1       -0.2683
     12 C         138.9291  139.9492  165.3137 C.3     1  UNL1        0.0938
     13 C         139.2477  140.4454  163.9343 C.3     1  UNL1        0.0217
     14 C         140.1693  140.4644  169.0481 C.ar    1  UNL1        0.1359
     15 C         141.4450  139.7857  169.4505 C.ar    1  UNL1        0.0378
     16 C         142.2245  140.2913  170.6281 C.ar    1  UNL1        0.0447
     17 N         143.5002  139.6127  171.0304 N.pl3   1  UNL1       -0.3569
     18 C         141.7281  141.4757  171.4034 C.ar    1  UNL1        0.0348
     19 C         140.4524  142.1544  171.0011 C.ar    1  UNL1        0.1003
     20 N         139.6730  141.6487  169.8234 N.ar    1  UNL1       -0.2392
     21 H         143.8260  138.8354  170.5216 H       1  UNL1        0.1424
     22 H         144.0118  139.9445  171.8033 H       1  UNL1        0.1424
     23 C         141.3018  142.9355  159.5950 C.3     1  UNL1        0.1022
     24 C         142.6217  140.9743  158.5173 C.ar    1  UNL1        0.1427
     25 C         142.8112  139.9981  157.3943 C.ar    1  UNL1        0.0372
     26 C         141.8705  140.0070  156.2260 C.ar    1  UNL1        0.0031
     27 C         140.7402  140.9921  156.1807 C.ar    1  UNL1       -0.0001
     28 C         140.5506  141.9682  157.3037 C.ar    1  UNL1        0.0001
     29 C         141.4914  141.9594  158.4721 C.ar    1  UNL1        0.0284
     30 O         143.5624  140.9654  159.6856 O.3     1  UNL1       -0.4507
     31 C         144.0687  140.2394  162.1283 C.ar    1  UNL1        0.1730
     32 C         143.8071  139.3337  163.2950 C.ar    1  UNL1        0.0401
     33 C         142.7775  138.2483  163.1858 C.ar    1  UNL1        0.0033
     34 C         142.0095  138.0686  161.9099 C.ar    1  UNL1        0.0033
     35 C         142.2711  138.9743  160.7431 C.ar    1  UNL1        0.0406
     36 C         143.3008  140.0597  160.8524 C.ar    1  UNL1        0.1789
     37 C         145.7925  141.5713  163.5441 C.3     1  UNL1        0.2526
     38 O         145.0984  141.3247  162.2375 O.3     1  UNL1       -0.4684
@<TRIPOS>BOND
     1    37    38    1
     2    38    31    1
     3    31    32   ar
     4    32    33   ar
     5    33    34   ar
     6    34    35   ar
     7    35    36   ar
     8    36    30    1
     9    30    24    1
    10    24    25   ar
    11    25    26   ar
    12    26    27   ar
    13    27    28   ar
    14    28    29   ar
    15    29    23    1
    16    23     1    1
    17     1     2    1
    18     2     3    1
    19     3     4    1
    20     4     5    1
    21     5     6    1
    22     4     7    1
    23     7     8    1
    24     8     9    1
    25     9    10   am
    26    10    11    2
    27    10    14    1
    28    14    15   ar
    29    15    16   ar
    30    16    17    1
    31    16    18   ar
    32    18    19   ar
    33    19    20   ar
    34     9    12    1
    35    12    13    1
    36    36    31   ar
    37    29    24   ar
    38     6     1    1
    39    20    14   ar
    40    13     4    1
    41    17    21    1
    42    17    22    1
@<TRIPOS>MOLECULE
*****
 38 42 0 0 0
SMALL
GASTEIGER

@<TRIPOS>ATOM
      1 N         141.4238  142.1428  165.3494 N.3     1  UNL1       -0.2689
      2 C         140.2838  141.9382  164.3963 C.3     1  UNL1        0.0724
      3 C         140.5528  141.4883  162.9909 C.3     1  UNL1        0.0175
      4 C         141.9618  141.2431  162.5386 C.3     1  UNL1        0.0060
      5 C         143.1018  141.4477  163.4917 C.3     1  UNL1        0.0175
      6 C         142.8328  141.8976  164.8971 C.3     1  UNL1        0.0724
      7 C         140.8218  141.0384  161.5854 C.3     1  UNL1        0.0217
      8 C         141.0908  140.5885  160.1800 C.3     1  UNL1        0.0938
      9 N         142.4998  140.3433  159.7277 N.am    1  UNL1       -0.2748
     10 C         142.7688  139.8934  158.3222 C.2     1  UNL1        0.2668
     11 O         144.1778  139.6481  157.8699 O.2     1  UNL1       -0.2683
     12 C         143.6398  140.5479  160.6808 C.3     1  UNL1        0.0938
     13 C         143.3708  140.9978  162.0863 C.3     1  UNL1        0.0217
     14 C         141.6288  139.6887  157.3691 C.ar    1  UNL1        0.1359
     15 C         140.9360  138.3599  157.3026 C.ar    1  UNL1        0.0378
     16 C         139.7960  138.1553  156.3495 C.ar    1  UNL1        0.0447
     17 N         139.1032  136.8265  156.2831 N.pl3   1  UNL1       -0.3569
     18 C         139.3487  139.2795  155.4628 C.ar    1  UNL1        0.0348
     19 C         140.0415  140.6083  155.5292 C.ar    1  UNL1        0.1003
     20 N         141.1815  140.8129  156.4824 N.ar    1  UNL1       -0.2392
     21 H         139.3968  136.0887  156.8650 H       1  UNL1        0.1424
     22 H         138.3550  136.6922  155.6575 H       1  UNL1        0.1424
     23 C         141.1548  142.5927  166.7549 C.3     1  UNL1        0.1022
     24 C         141.1766  140.5063  168.3028 C.ar    1  UNL1        0.1427
     25 C         141.7656  139.7516  169.4576 C.ar    1  UNL1        0.0372
     26 C         142.9219  140.3287  170.2192 C.ar    1  UNL1        0.0031
     27 C         143.4891  141.6604  169.8260 C.ar    1  UNL1       -0.0001
     28 C         142.9001  142.4151  168.6713 C.ar    1  UNL1        0.0001
     29 C         141.7438  141.8380  167.9096 C.ar    1  UNL1        0.0284
     30 O         140.0203  139.9292  167.5413 O.3     1  UNL1       -0.4507
     31 C         139.1141  138.4724  165.5902 C.ar    1  UNL1        0.1730
     32 C         139.3628  137.6203  164.3811 C.ar    1  UNL1        0.0401
     33 C         140.7665  137.3729  163.9138 C.ar    1  UNL1        0.0033
     34 C         141.9215  137.9775  164.6557 C.ar    1  UNL1        0.0033
     35 C         141.6728  138.8296  165.8648 C.ar    1  UNL1        0.0406
     36 C         140.2690  139.0771  166.3321 C.ar    1  UNL1        0.1789
     37 C         137.1995  138.0375  167.2918 C.3     1  UNL1        0.2526
     38 O         137.7103  138.7198  166.0575 O.3     1  UNL1       -0.4684
@<TRIPOS>BOND
     1    37    38    1
     2    38    31    1
     3    31    32   ar
     4    32    33   ar
     5    33    34   ar
     6    34    35   ar
     7    35    36   ar
     8    36    30    1
     9    30    24    1
    10    24    25   ar
    11    25    26   ar
    12    26    27   ar
    13    27    28   ar
    14    28    29   ar
    15    29    23    1
    16    23     1    1
    17     1     2    1
    18     2     3    1
    19     3     4    1
    20     4     5    1
    21     5     6    1
    22     4     7    1
    23     7     8    1
    24     8     9    1
    25     9    10   am
    26    10    11    2
    27    10    14    1
    28    14    15   ar
    29    15    16   ar
    30    16    17    1
    31    16    18   ar
    32    18    19   ar
    33    19    20   ar
    34     9    12    1
    35    12    13    1
    36    36    31   ar
    37    29    24   ar
    38     6     1    1
    39    20    14   ar
    40    13     4    1
    41    17    21    1
    42    17    22    1
@<TRIPOS>MOLECULE
*****
 38 42 0 0 0
SMALL
GASTEIGER

@<TRIPOS>ATOM
      1 N         142.0556  141.1930  164.2288 N.3     1  UNL1       -0.2689
      2 C         141.2885  141.6977  163.0427 C.3     1  UNL1        0.0724
      3 C         141.3239  140.9395  161.7489 C.3     1  UNL1        0.0175
      4 C         142.1263  139.6768  161.6412 C.3     1  UNL1        0.0060
      5 C         142.8934  139.1722  162.8273 C.3     1  UNL1        0.0175
      6 C         142.8580  139.9303  164.1211 C.3     1  UNL1        0.0724
      7 C         141.3592  140.1814  160.4550 C.3     1  UNL1        0.0217
      8 C         141.3945  139.4233  159.1612 C.3     1  UNL1        0.0938
      9 N         142.1970  138.1605  159.0535 N.am    1  UNL1       -0.2748
     10 C         142.2323  137.4024  157.7596 C.2     1  UNL1        0.2668
     11 O         143.0347  136.1397  157.6519 O.2     1  UNL1       -0.2683
     12 C         142.9640  137.6559  160.2396 C.3     1  UNL1        0.0938
     13 C         142.9287  138.4141  161.5335 C.3     1  UNL1        0.0217
     14 C         141.4652  137.9070  156.5735 C.ar    1  UNL1        0.1359
     15 C         140.0371  137.4942  156.3730 C.ar    1  UNL1        0.0378
     16 C         139.2700  137.9988  155.1869 C.ar    1  UNL1        0.0447
     17 N         137.8420  137.5860  154.9863 N.pl3   1  UNL1       -0.3569
     18 C         139.9310  138.9163  154.2012 C.ar    1  UNL1        0.0348
     19 C         141.3590  139.3291  154.4018 C.ar    1  UNL1        0.1003
     20 N         142.1261  138.8244  155.5879 N.ar    1  UNL1       -0.2392
     21 H         137.4081  136.9838  155.6332 H       1  UNL1        0.1424
     22 H         137.3385  137.9172  154.2078 H       1  UNL1        0.1424
     23 C         142.0203  141.9512  165.5227 C.3     1  UNL1        0.1022
     24 C         140.2024  140.8050  166.9827 C.ar    1  UNL1        0.1427
     25 C         139.8026  140.1083  168.2495 C.ar    1  UNL1        0.0372
     26 C         140.8206  139.8613  169.3230 C.ar    1  UNL1        0.0031
     27 C         142.2385  140.3108  169.1298 C.ar    1  UNL1       -0.0001
     28 C         142.6385  141.0074  167.8630 C.ar    1  UNL1        0.0001
     29 C         141.6204  141.2546  166.7894 C.ar    1  UNL1        0.0284
     30 O         139.1844  141.0521  165.9091 O.3     1  UNL1       -0.4507
     31 C         138.1374  140.3797  163.6285 C.ar    1  UNL1        0.1730
     32 C         137.9335  139.3671  162.5407 C.ar    1  UNL1        0.0401
     33 C         138.5729  138.0143  162.6460 C.ar    1  UNL1        0.0033
     34 C         139.4162  137.6741  163.8390 C.ar    1  UNL1        0.0033
     35 C         139.6200  138.6867  164.9267 C.ar    1  UNL1        0.0406
     36 C         138.9806  140.0395  164.8214 C.ar    1  UNL1        0.1789
     37 C         137.7959  142.6134  162.3462 C.3     1  UNL1        0.2526
     38 O         137.4979  141.7326  163.5232 O.3     1  UNL1       -0.4684
@<TRIPOS>BOND
     1    37    38    1
     2    38    31    1
     3    31    32   ar
     4    32    33   ar
     5    33    34   ar
     6    34    35   ar
     7    35    36   ar
     8    36    30    1
     9    30    24    1
    10    24    25   ar
    11    25    26   ar
    12    26    27   ar
    13    27    28   ar
    14    28    29   ar
    15    29    23    1
    16    23     1    1
    17     1     2    1
    18     2     3    1
    19     3     4    1
    20     4     5    1
    21     5     6    1
    22     4     7    1
    23     7     8    1
    24     8     9    1
    25     9    10   am
    26    10    11    2
    27    10    14    1
    28    14    15   ar
    29    15    16   ar
    30    16    17    1
    31    16    18   ar
    32    18    19   ar
    33    19    20   ar
    34     9    12    1
    35    12    13    1
    36    36    31   ar
    37    29    24   ar
    38     6     1    1
    39    20    14   ar
    40    13     4    1
    41    17    21    1
    42    17    22    1
