@<TRIPOS>MOLECULE
*****
 40 45 0 0 0
SMALL
GASTEIGER

@<TRIPOS>ATOM
      1 C         141.1879  140.1118  166.4695 C.3     1  UNL1        0.1180
      2 C         141.7124  141.5153  166.3973 C.3     1  UNL1        0.0311
      3 C         142.9929  141.8009  165.6701 C.3     1  UNL1        0.0194
      4 C         143.7489  140.6830  165.0152 C.3     1  UNL1        0.0700
      5 C         143.2244  139.2796  165.0874 C.3     1  UNL1        0.0194
      6 C         141.9439  138.9940  165.8146 C.3     1  UNL1        0.0311
      7 C         143.0518  140.4776  165.4023 C.3     1  UNL1        0.1563
      8 O         141.8940  140.2193  166.0598 O.3     1  UNL1       -0.3548
      9 N         145.0294  140.9687  164.2880 N.3     1  UNL1       -0.2926
     10 H         145.1130  140.2671  163.5523 H       1  UNL1        0.1236
     11 C         145.2415  142.3042  163.6390 C.3     1  UNL1        0.1152
     12 C         144.3235  142.7601  162.5438 C.ar    1  UNL1        0.0765
     13 C         144.5040  142.2396  161.1486 C.ar    1  UNL1        0.0193
     14 C         143.5860  142.6955  160.0534 C.ar    1  UNL1        0.0411
     15 C         142.4874  143.6719  160.3534 C.ar    1  UNL1        0.1708
     16 C         142.3069  144.1923  161.7486 C.ar    1  UNL1        0.1682
     17 N         143.2249  143.7365  162.8438 N.ar    1  UNL1       -0.2304
     18 N         141.2084  145.1687  162.0485 N.am    1  UNL1       -0.2639
     19 C         140.2904  145.6246  160.9534 C.2     1  UNL1        0.2718
     20 O         139.1919  146.6009  161.2534 O.2     1  UNL1       -0.2707
     21 C         140.4709  145.1041  159.5582 C.3     1  UNL1        0.2898
     22 O         141.5694  144.1278  159.2582 O.3     1  UNL1       -0.4628
     23 H         141.0899  145.5103  162.9643 H       1  UNL1        0.1565
     24 C         139.9075  139.8262  167.1967 C.3     1  UNL1        0.1444
     25 O         139.9222  139.5942  168.6786 O.3     1  UNL1       -0.3508
     26 C         139.5443  140.7032  169.6151 C.3     1  UNL1        0.1741
     27 C         138.6122  139.7726  166.4420 C.3     1  UNL1        0.0622
     28 C         138.1833  143.0802  163.4211 C.ar    1  UNL1        0.2250
     29 C         138.1820  142.7617  161.9554 C.ar    1  UNL1        0.0593
     30 C         138.3236  141.3407  161.4965 C.ar    1  UNL1        0.0254
     31 C         138.4666  140.2381  162.5034 C.ar    1  UNL1        0.0990
     32 N         138.6083  138.8171  162.0446 N.ar    1  UNL1       -0.2400
     33 C         138.7512  137.7145  163.0515 C.ar    1  UNL1        0.1281
     34 C         138.7525  138.0330  164.5173 C.ar    1  UNL1        0.1567
     35 F         138.8955  136.9305  165.5243 F       1  UNL1       -0.2028
     36 C         138.6109  139.4541  164.9762 C.ar    1  UNL1        0.0285
     37 C         138.4679  140.5566  163.9692 C.ar    1  UNL1        0.1002
     38 N         138.3263  141.9777  164.4280 N.ar    1  UNL1       -0.2104
     39 C         138.6611  144.9366  165.1749 C.3     1  UNL1        0.2542
     40 O         138.0416  144.5013  163.8800 O.3     1  UNL1       -0.4561
@<TRIPOS>BOND
     1    39    40    1
     2    40    28    1
     3    28    29   ar
     4    29    30   ar
     5    30    31   ar
     6    31    32   ar
     7    32    33   ar
     8    33    34   ar
     9    34    35    1
    10    34    36   ar
    11    36    27    1
    12    24    27    1
    13    24    25    1
    14    25    26    1
    15    24     1    1
    16     1     2    1
    17     2     3    1
    18     3     4    1
    19     4     9    1
    20     9    11    1
    21    11    12    1
    22    12    13   ar
    23    13    14   ar
    24    14    15   ar
    25    15    16   ar
    26    16    17   ar
    27    16    18    1
    28    18    19   am
    29    19    20    2
    30    19    21    1
    31    21    22    1
    32     4     5    1
    33     5     6    1
    34     4     7    1
    35     7     8    1
    36    36    37   ar
    37    37    38   ar
    38    38    28   ar
    39    37    31   ar
    40     6     1    1
    41     8     1    1
    42    17    12   ar
    43    22    15    1
    44     9    10    1
    45    18    23    1
@<TRIPOS>MOLECULE
*****
 40 45 0 0 0
SMALL
GASTEIGER

@<TRIPOS>ATOM
      1 C         139.5000  138.1263  164.3973 C.3     1  UNL1        0.1180
      2 C         139.1056  138.2198  162.9531 C.3     1  UNL1        0.0311
      3 C         140.1127  137.9289  161.8803 C.3     1  UNL1        0.0194
      4 C         141.5143  137.5444  162.2516 C.3     1  UNL1        0.0700
      5 C         141.9087  137.4509  163.6958 C.3     1  UNL1        0.0194
      6 C         140.9015  137.7419  164.7687 C.3     1  UNL1        0.0311
      7 C         140.9974  137.6945  162.8746 C.3     1  UNL1        0.1563
      8 O         140.0867  137.9576  163.8448 O.3     1  UNL1       -0.3548
      9 N         142.5214  137.2535  161.1788 N.3     1  UNL1       -0.2926
     10 H         142.0477  137.3891  160.2856 H       1  UNL1        0.1236
     11 C         143.7979  138.0387  161.1155 C.3     1  UNL1        0.1152
     12 C         143.7757  139.5242  161.3222 C.ar    1  UNL1        0.0765
     13 C         143.4147  140.4342  160.1857 C.ar    1  UNL1        0.0193
     14 C         143.3925  141.9197  160.3923 C.ar    1  UNL1        0.0411
     15 C         143.7313  142.4953  161.7354 C.ar    1  UNL1        0.1708
     16 C         144.0923  141.5853  162.8719 C.ar    1  UNL1        0.1682
     17 N         144.1145  140.0997  162.6653 N.ar    1  UNL1       -0.2304
     18 N         144.4310  142.1608  164.2150 N.am    1  UNL1       -0.2639
     19 C         144.4088  143.6463  164.4217 C.2     1  UNL1        0.2718
     20 O         144.7476  144.2219  165.7648 O.2     1  UNL1       -0.2707
     21 C         144.0478  144.5564  163.2852 C.3     1  UNL1        0.2898
     22 O         143.7091  143.9809  161.9421 O.3     1  UNL1       -0.4628
     23 H         144.6680  141.5636  164.9609 H       1  UNL1        0.1565
     24 C         138.4929  138.4172  165.4701 C.3     1  UNL1        0.1444
     25 O         137.8623  137.2898  166.2326 O.3     1  UNL1       -0.3508
     26 C         137.0431  137.5773  167.4557 C.3     1  UNL1        0.1741
     27 C         138.1162  139.8356  165.7806 C.3     1  UNL1        0.0622
     28 C         138.7675  142.9774  162.6254 C.ar    1  UNL1        0.2250
     29 C         139.8359  144.0141  162.8086 C.ar    1  UNL1        0.0593
     30 C         140.6873  144.0036  164.0436 C.ar    1  UNL1        0.0254
     31 C         140.4702  142.9564  165.0953 C.ar    1  UNL1        0.0990
     32 N         141.3215  142.9459  166.3303 N.ar    1  UNL1       -0.2400
     33 C         141.1044  141.8987  167.3820 C.ar    1  UNL1        0.1281
     34 C         140.0360  140.8619  167.1988 C.ar    1  UNL1        0.1567
     35 F         139.8189  139.8147  168.2505 F       1  UNL1       -0.2028
     36 C         139.1847  140.8724  165.9638 C.ar    1  UNL1        0.0285
     37 C         139.4018  141.9197  164.9121 C.ar    1  UNL1        0.1002
     38 N         138.5505  141.9301  163.6771 N.ar    1  UNL1       -0.2104
     39 C         138.4928  142.5457  160.0782 C.3     1  UNL1        0.2542
     40 O         137.9162  142.9878  161.3904 O.3     1  UNL1       -0.4561
@<TRIPOS>BOND
     1    39    40    1
     2    40    28    1
     3    28    29   ar
     4    29    30   ar
     5    30    31   ar
     6    31    32   ar
     7    32    33   ar
     8    33    34   ar
     9    34    35    1
    10    34    36   ar
    11    36    27    1
    12    24    27    1
    13    24    25    1
    14    25    26    1
    15    24     1    1
    16     1     2    1
    17     2     3    1
    18     3     4    1
    19     4     9    1
    20     9    11    1
    21    11    12    1
    22    12    13   ar
    23    13    14   ar
    24    14    15   ar
    25    15    16   ar
    26    16    17   ar
    27    16    18    1
    28    18    19   am
    29    19    20    2
    30    19    21    1
    31    21    22    1
    32     4     5    1
    33     5     6    1
    34     4     7    1
    35     7     8    1
    36    36    37   ar
    37    37    38   ar
    38    38    28   ar
    39    37    31   ar
    40     6     1    1
    41     8     1    1
    42    17    12   ar
    43    22    15    1
    44     9    10    1
    45    18    23    1
@<TRIPOS>MOLECULE
*****
 40 45 0 0 0
SMALL
GASTEIGER

@<TRIPOS>ATOM
      1 C         143.3830  140.4006  160.6629 C.3     1  UNL1        0.1180
      2 C         141.8939  140.4684  160.8308 C.3     1  UNL1        0.0311
      3 C         141.1638  139.3471  161.5086 C.3     1  UNL1        0.0194
      4 C         141.9227  138.1579  162.0185 C.3     1  UNL1        0.0700
      5 C         143.4117  138.0901  161.8506 C.3     1  UNL1        0.0194
      6 C         144.1418  139.2115  161.1728 C.3     1  UNL1        0.0311
      7 C         142.3664  138.7478  161.6538 C.3     1  UNL1        0.1563
      8 O         143.0266  139.7618  161.0409 O.3     1  UNL1       -0.3548
      9 N         141.1925  137.0365  162.6963 N.3     1  UNL1       -0.2926
     10 H         141.5933  136.1678  162.3425 H       1  UNL1        0.1236
     11 C         141.1947  136.9364  164.1929 C.3     1  UNL1        0.1152
     12 C         140.9107  138.1509  165.0262 C.ar    1  UNL1        0.0765
     13 C         139.5048  138.6565  165.1602 C.ar    1  UNL1        0.0193
     14 C         139.2208  139.8710  165.9935 C.ar    1  UNL1        0.0411
     15 C         140.3426  140.5798  166.6928 C.ar    1  UNL1        0.1708
     16 C         141.7484  140.0742  166.5589 C.ar    1  UNL1        0.1682
     17 N         142.0325  138.8597  165.7255 N.ar    1  UNL1       -0.2304
     18 N         142.8702  140.7831  167.2582 N.am    1  UNL1       -0.2639
     19 C         142.5862  141.9975  168.0915 C.2     1  UNL1        0.2718
     20 O         143.7080  142.7064  168.7908 O.2     1  UNL1       -0.2707
     21 C         141.1803  142.5032  168.2255 C.3     1  UNL1        0.2898
     22 O         140.0585  141.7943  167.5261 O.3     1  UNL1       -0.4628
     23 H         143.7929  140.4512  167.1703 H       1  UNL1        0.1565
     24 C         144.1131  141.5220  159.9852 C.3     1  UNL1        0.1444
     25 O         144.1508  141.5954  158.4874 O.3     1  UNL1       -0.3508
     26 C         143.8986  140.3637  157.6695 C.3     1  UNL1        0.1741
     27 C         144.8056  142.5700  160.8051 C.3     1  UNL1        0.0622
     28 C         141.0994  145.0984  161.1534 C.ar    1  UNL1        0.2250
     29 C         140.5663  145.4654  162.5065 C.ar    1  UNL1        0.0593
     30 C         141.2686  144.9896  163.7436 C.ar    1  UNL1        0.0254
     31 C         142.5040  144.1468  163.6276 C.ar    1  UNL1        0.0990
     32 N         143.2063  143.6711  164.8647 N.ar    1  UNL1       -0.2400
     33 C         144.4417  142.8283  164.7486 C.ar    1  UNL1        0.1281
     34 C         144.9748  142.4612  163.3954 C.ar    1  UNL1        0.1567
     35 F         146.2102  141.6184  163.2793 F       1  UNL1       -0.2028
     36 C         144.2725  142.9370  162.1583 C.ar    1  UNL1        0.0285
     37 C         143.0371  143.7798  162.2744 C.ar    1  UNL1        0.1002
     38 N         142.3348  144.2556  161.0373 N.ar    1  UNL1       -0.2104
     39 C         141.1041  145.5436  158.5938 C.3     1  UNL1        0.2542
     40 O         140.3971  145.5741  159.9163 O.3     1  UNL1       -0.4561
@<TRIPOS>BOND
     1    39    40    1
     2    40    28    1
     3    28    29   ar
     4    29    30   ar
     5    30    31   ar
     6    31    32   ar
     7    32    33   ar
     8    33    34   ar
     9    34    35    1
    10    34    36   ar
    11    36    27    1
    12    24    27    1
    13    24    25    1
    14    25    26    1
    15    24     1    1
    16     1     2    1
    17     2     3    1
    18     3     4    1
    19     4     9    1
    20     9    11    1
    21    11    12    1
    22    12    13   ar
    23    13    14   ar
    24    14    15   ar
    25    15    16   ar
    26    16    17   ar
    27    16    18    1
    28    18    19   am
    29    19    20    2
    30    19    21    1
    31    21    22    1
    32     4     5    1
    33     5     6    1
    34     4     7    1
    35     7     8    1
    36    36    37   ar
    37    37    38   ar
    38    38    28   ar
    39    37    31   ar
    40     6     1    1
    41     8     1    1
    42    17    12   ar
    43    22    15    1
    44     9    10    1
    45    18    23    1
@<TRIPOS>MOLECULE
*****
 40 45 0 0 0
SMALL
GASTEIGER

@<TRIPOS>ATOM
      1 C         140.6560  139.3719  160.9439 C.3     1  UNL1        0.1180
      2 C         141.4628  140.6357  160.9017 C.3     1  UNL1        0.0311
      3 C         142.8597  140.6523  161.4479 C.3     1  UNL1        0.0194
      4 C         143.4498  139.4050  162.0363 C.3     1  UNL1        0.0700
      5 C         142.6430  138.1412  162.0784 C.3     1  UNL1        0.0194
      6 C         141.2460  138.1247  161.5322 C.3     1  UNL1        0.0311
      7 C         142.6803  139.3472  161.7493 C.3     1  UNL1        0.1563
      8 O         141.4171  139.3322  161.2554 O.3     1  UNL1       -0.3548
      9 N         144.8467  139.4217  162.5824 N.3     1  UNL1       -0.2926
     10 H         145.3081  140.2405  162.1862 H       1  UNL1        0.1236
     11 C         145.0720  139.4726  164.0646 C.3     1  UNL1        0.1152
     12 C         144.1491  140.2713  164.9364 C.ar    1  UNL1        0.0765
     13 C         144.1964  141.7703  164.9036 C.ar    1  UNL1        0.0193
     14 C         143.2735  142.5690  165.7755 C.ar    1  UNL1        0.0411
     15 C         142.3032  141.8689  166.6802 C.ar    1  UNL1        0.1708
     16 C         142.2559  140.3700  166.7130 C.ar    1  UNL1        0.1682
     17 N         143.1788  139.5712  165.8411 N.ar    1  UNL1       -0.2304
     18 N         141.2856  139.6699  167.6177 N.am    1  UNL1       -0.2639
     19 C         140.3627  140.4686  168.4896 C.2     1  UNL1        0.2718
     20 O         139.3925  139.7685  169.3942 O.2     1  UNL1       -0.2707
     21 C         140.4100  141.9676  168.4568 C.3     1  UNL1        0.2898
     22 O         141.3803  142.6677  167.5521 O.3     1  UNL1       -0.4628
     23 H         141.2546  138.6861  167.6392 H       1  UNL1        0.1565
     24 C         139.2591  139.3553  160.3977 C.3     1  UNL1        0.1444
     25 O         139.0058  138.8726  159.0002 O.3     1  UNL1       -0.3508
     26 C         140.1498  138.7117  158.0435 C.3     1  UNL1        0.1741
     27 C         138.1153  139.8214  161.2490 C.3     1  UNL1        0.0622
     28 C         138.7174  144.0255  162.7364 C.ar    1  UNL1        0.2250
     29 C         138.9268  144.2806  164.1996 C.ar    1  UNL1        0.0593
     30 C         138.9355  143.1343  165.1670 C.ar    1  UNL1        0.0254
     31 C         138.7348  141.7330  164.6713 C.ar    1  UNL1        0.0990
     32 N         138.7434  140.5867  165.6387 N.ar    1  UNL1       -0.2400
     33 C         138.5427  139.1853  165.1429 C.ar    1  UNL1        0.1281
     34 C         138.3334  138.9302  163.6796 C.ar    1  UNL1        0.1567
     35 F         138.1327  137.5288  163.1839 F       1  UNL1       -0.2028
     36 C         138.3247  140.0765  162.7122 C.ar    1  UNL1        0.0285
     37 C         138.5254  141.4779  163.2081 C.ar    1  UNL1        0.1002
     38 N         138.5167  142.6242  162.2406 N.ar    1  UNL1       -0.2104
     39 C         139.7941  146.2058  161.8215 C.3     1  UNL1        0.2542
     40 O         138.7087  145.1718  161.7690 O.3     1  UNL1       -0.4561
@<TRIPOS>BOND
     1    39    40    1
     2    40    28    1
     3    28    29   ar
     4    29    30   ar
     5    30    31   ar
     6    31    32   ar
     7    32    33   ar
     8    33    34   ar
     9    34    35    1
    10    34    36   ar
    11    36    27    1
    12    24    27    1
    13    24    25    1
    14    25    26    1
    15    24     1    1
    16     1     2    1
    17     2     3    1
    18     3     4    1
    19     4     9    1
    20     9    11    1
    21    11    12    1
    22    12    13   ar
    23    13    14   ar
    24    14    15   ar
    25    15    16   ar
    26    16    17   ar
    27    16    18    1
    28    18    19   am
    29    19    20    2
    30    19    21    1
    31    21    22    1
    32     4     5    1
    33     5     6    1
    34     4     7    1
    35     7     8    1
    36    36    37   ar
    37    37    38   ar
    38    38    28   ar
    39    37    31   ar
    40     6     1    1
    41     8     1    1
    42    17    12   ar
    43    22    15    1
    44     9    10    1
    45    18    23    1
@<TRIPOS>MOLECULE
*****
 40 45 0 0 0
SMALL
GASTEIGER

@<TRIPOS>ATOM
      1 C         138.1006  141.0699  160.9739 C.3     1  UNL1        0.1180
      2 C         137.4503  140.9081  162.3159 C.3     1  UNL1        0.0311
      3 C         137.5005  142.0272  163.3134 C.3     1  UNL1        0.0194
      4 C         138.2010  143.3081  162.9690 C.3     1  UNL1        0.0700
      5 C         138.8513  143.4699  161.6270 C.3     1  UNL1        0.0194
      6 C         138.8010  142.3508  160.6294 C.3     1  UNL1        0.0311
      7 C         138.1997  142.7230  162.3897 C.3     1  UNL1        0.1563
      8 O         138.1543  141.7111  161.4877 O.3     1  UNL1       -0.3548
      9 N         138.2512  144.4272  163.9666 N.3     1  UNL1       -0.2926
     10 H         137.4075  144.3530  164.5350 H       1  UNL1        0.1236
     11 C         139.4062  144.5328  164.9177 C.3     1  UNL1        0.1152
     12 C         140.7924  144.1952  164.4547 C.ar    1  UNL1        0.0765
     13 C         141.6100  145.2200  163.7256 C.ar    1  UNL1        0.0193
     14 C         142.9962  144.8824  163.2626 C.ar    1  UNL1        0.0411
     15 C         143.5649  143.5201  163.5285 C.ar    1  UNL1        0.1708
     16 C         142.7473  142.4954  164.2575 C.ar    1  UNL1        0.1682
     17 N         141.3611  142.8329  164.7206 N.ar    1  UNL1       -0.2304
     18 N         143.3160  141.1330  164.5234 N.am    1  UNL1       -0.2639
     19 C         144.7022  140.7955  164.0603 C.2     1  UNL1        0.2718
     20 O         145.2708  139.4332  164.3263 O.2     1  UNL1       -0.2707
     21 C         145.5198  141.8203  163.3313 C.3     1  UNL1        0.2898
     22 O         144.9511  143.1826  163.0654 O.3     1  UNL1       -0.4628
     23 H         142.7794  140.4605  165.0019 H       1  UNL1        0.1565
     24 C         138.0504  139.9509  159.9763 C.3     1  UNL1        0.1444
     25 O         137.3564  140.1489  158.6613 O.3     1  UNL1       -0.3508
     26 C         138.1087  140.7162  157.4943 C.3     1  UNL1        0.1741
     27 C         138.6941  138.6337  160.2938 C.3     1  UNL1        0.0622
     28 C         139.6117  137.6838  164.5956 C.ar    1  UNL1        0.2250
     29 C         141.0351  137.6389  165.0666 C.ar    1  UNL1        0.0593
     30 C         142.1527  137.9106  164.1036 C.ar    1  UNL1        0.0254
     31 C         141.8468  138.2272  162.6697 C.ar    1  UNL1        0.0990
     32 N         142.9644  138.4989  161.7068 N.ar    1  UNL1       -0.2400
     33 C         142.6586  138.8155  160.2729 C.ar    1  UNL1        0.1281
     34 C         141.2351  138.8604  159.8018 C.ar    1  UNL1        0.1567
     35 F         140.9293  139.1771  158.3679 F       1  UNL1       -0.2028
     36 C         140.1175  138.5888  160.7647 C.ar    1  UNL1        0.0285
     37 C         140.4234  138.2721  162.1987 C.ar    1  UNL1        0.1002
     38 N         139.3059  138.0004  163.1617 N.ar    1  UNL1       -0.2104
     39 C         138.0023  138.5025  166.4636 C.3     1  UNL1        0.2542
     40 O         138.4941  137.4121  165.5585 O.3     1  UNL1       -0.4561
@<TRIPOS>BOND
     1    39    40    1
     2    40    28    1
     3    28    29   ar
     4    29    30   ar
     5    30    31   ar
     6    31    32   ar
     7    32    33   ar
     8    33    34   ar
     9    34    35    1
    10    34    36   ar
    11    36    27    1
    12    24    27    1
    13    24    25    1
    14    25    26    1
    15    24     1    1
    16     1     2    1
    17     2     3    1
    18     3     4    1
    19     4     9    1
    20     9    11    1
    21    11    12    1
    22    12    13   ar
    23    13    14   ar
    24    14    15   ar
    25    15    16   ar
    26    16    17   ar
    27    16    18    1
    28    18    19   am
    29    19    20    2
    30    19    21    1
    31    21    22    1
    32     4     5    1
    33     5     6    1
    34     4     7    1
    35     7     8    1
    36    36    37   ar
    37    37    38   ar
    38    38    28   ar
    39    37    31   ar
    40     6     1    1
    41     8     1    1
    42    17    12   ar
    43    22    15    1
    44     9    10    1
    45    18    23    1
@<TRIPOS>MOLECULE
*****
 40 45 0 0 0
SMALL
GASTEIGER

@<TRIPOS>ATOM
      1 C         139.5160  138.1925  164.4343 C.3     1  UNL1        0.1180
      2 C         139.1387  138.2544  162.9838 C.3     1  UNL1        0.0311
      3 C         140.1551  137.9285  161.9299 C.3     1  UNL1        0.0194
      4 C         141.5488  137.5407  162.3264 C.3     1  UNL1        0.0700
      5 C         141.9261  137.4788  163.7769 C.3     1  UNL1        0.0194
      6 C         140.9097  137.8047  164.8308 C.3     1  UNL1        0.0311
      7 C         141.0264  137.7105  162.9397 C.3     1  UNL1        0.1563
      8 O         140.1073  138.0052  163.8927 O.3     1  UNL1       -0.3548
      9 N         142.5652  137.2149  161.2725 N.3     1  UNL1       -0.2926
     10 H         142.0937  137.3009  160.3722 H       1  UNL1        0.1236
     11 C         143.8300  138.0156  161.1773 C.3     1  UNL1        0.1152
     12 C         143.7875  139.5066  161.3356 C.ar    1  UNL1        0.0765
     13 C         143.4070  140.3739  160.1724 C.ar    1  UNL1        0.0193
     14 C         143.3644  141.8648  160.3307 C.ar    1  UNL1        0.0411
     15 C         143.7024  142.4886  161.6523 C.ar    1  UNL1        0.1708
     16 C         144.0829  141.6215  162.8156 C.ar    1  UNL1        0.1682
     17 N         144.1255  140.1304  162.6572 N.ar    1  UNL1       -0.2304
     18 N         144.4209  142.2453  164.1372 N.am    1  UNL1       -0.2639
     19 C         144.3783  143.7362  164.2955 C.2     1  UNL1        0.2718
     20 O         144.7163  144.3601  165.6171 O.2     1  UNL1       -0.2707
     21 C         143.9978  144.6035  163.1322 C.3     1  UNL1        0.2898
     22 O         143.6598  143.9797  161.8106 O.3     1  UNL1       -0.4628
     23 H         144.6706  141.6761  164.9006 H       1  UNL1        0.1565
     24 C         138.4996  138.5183  165.4882 C.3     1  UNL1        0.1444
     25 O         137.7991  137.4133  166.2217 O.3     1  UNL1       -0.3508
     26 C         137.0300  137.7140  167.4739 C.3     1  UNL1        0.1741
     27 C         138.1838  139.9493  165.8086 C.3     1  UNL1        0.0622
     28 C         141.4189  140.5977  168.8686 C.ar    1  UNL1        0.2250
     29 C         142.4543  141.6611  168.6515 C.ar    1  UNL1        0.0593
     30 C         142.4114  142.5083  167.4144 C.ar    1  UNL1        0.0254
     31 C         141.3330  142.2922  166.3944 C.ar    1  UNL1        0.0990
     32 N         141.2901  143.1394  165.1573 N.ar    1  UNL1       -0.2400
     33 C         140.2117  142.9233  164.1373 C.ar    1  UNL1        0.1281
     34 C         139.1762  141.8599  164.3544 C.ar    1  UNL1        0.1567
     35 F         138.0979  141.6438  163.3344 F       1  UNL1       -0.2028
     36 C         139.2192  141.0127  165.5915 C.ar    1  UNL1        0.0285
     37 C         140.2976  141.2288  166.6115 C.ar    1  UNL1        0.1002
     38 N         140.3405  140.3816  167.8486 N.ar    1  UNL1       -0.2104
     39 C         140.3365  139.8110  171.0955 C.3     1  UNL1        0.2542
     40 O         141.4618  139.7505  170.1056 O.3     1  UNL1       -0.4561
@<TRIPOS>BOND
     1    39    40    1
     2    40    28    1
     3    28    29   ar
     4    29    30   ar
     5    30    31   ar
     6    31    32   ar
     7    32    33   ar
     8    33    34   ar
     9    34    35    1
    10    34    36   ar
    11    36    27    1
    12    24    27    1
    13    24    25    1
    14    25    26    1
    15    24     1    1
    16     1     2    1
    17     2     3    1
    18     3     4    1
    19     4     9    1
    20     9    11    1
    21    11    12    1
    22    12    13   ar
    23    13    14   ar
    24    14    15   ar
    25    15    16   ar
    26    16    17   ar
    27    16    18    1
    28    18    19   am
    29    19    20    2
    30    19    21    1
    31    21    22    1
    32     4     5    1
    33     5     6    1
    34     4     7    1
    35     7     8    1
    36    36    37   ar
    37    37    38   ar
    38    38    28   ar
    39    37    31   ar
    40     6     1    1
    41     8     1    1
    42    17    12   ar
    43    22    15    1
    44     9    10    1
    45    18    23    1
@<TRIPOS>MOLECULE
*****
 40 45 0 0 0
SMALL
GASTEIGER

@<TRIPOS>ATOM
      1 C         138.5435  139.7057  164.5064 C.3     1  UNL1        0.1180
      2 C         139.1413  140.7785  165.3677 C.3     1  UNL1        0.0311
      3 C         138.8864  142.2226  165.0522 C.3     1  UNL1        0.0194
      4 C         138.0336  142.5940  163.8754 C.3     1  UNL1        0.0700
      5 C         137.4357  141.5213  163.0142 C.3     1  UNL1        0.0194
      6 C         137.6907  140.0771  163.3297 C.3     1  UNL1        0.0311
      7 C         138.1451  141.7892  164.0087 C.3     1  UNL1        0.1563
      8 O         138.3756  140.4833  164.2939 O.3     1  UNL1       -0.3548
      9 N         137.7786  144.0381  163.5600 N.3     1  UNL1       -0.2926
     10 H         137.2298  144.4157  164.3323 H       1  UNL1        0.1236
     11 C         138.9313  144.9746  163.3493 C.3     1  UNL1        0.1152
     12 C         140.0925  144.5551  162.4976 C.ar    1  UNL1        0.0765
     13 C         140.0434  144.7544  161.0116 C.ar    1  UNL1        0.0193
     14 C         141.2046  144.3349  160.1598 C.ar    1  UNL1        0.0411
     15 C         142.4149  143.7161  160.7939 C.ar    1  UNL1        0.1708
     16 C         142.4641  143.5167  162.2798 C.ar    1  UNL1        0.1682
     17 N         141.3028  143.9362  163.1316 N.ar    1  UNL1       -0.2304
     18 N         143.6744  142.8978  162.9138 N.am    1  UNL1       -0.2639
     19 C         144.8356  142.4783  162.0620 C.2     1  UNL1        0.2718
     20 O         146.0460  141.8594  162.6961 O.2     1  UNL1       -0.2707
     21 C         144.7865  142.6777  160.5761 C.3     1  UNL1        0.2898
     22 O         143.5762  143.2965  159.9420 O.3     1  UNL1       -0.4628
     23 H         143.7067  142.7670  163.8891 H       1  UNL1        0.1565
     24 C         138.7984  138.2616  164.8218 C.3     1  UNL1        0.1444
     25 O         138.3372  137.6866  166.1282 O.3     1  UNL1       -0.3508
     26 C         137.5233  138.5231  167.0703 C.3     1  UNL1        0.1741
     27 C         139.5146  137.3926  163.8309 C.3     1  UNL1        0.0622
     28 C         143.3229  138.5537  165.9282 C.ar    1  UNL1        0.2250
     29 C         144.4743  139.1055  165.1411 C.ar    1  UNL1        0.0593
     30 C         144.3563  139.2703  163.6548 C.ar    1  UNL1        0.0254
     31 C         143.0869  138.8833  162.9557 C.ar    1  UNL1        0.0990
     32 N         142.9690  139.0481  161.4695 N.ar    1  UNL1       -0.2400
     33 C         141.6996  138.6610  160.7704 C.ar    1  UNL1        0.1281
     34 C         140.5481  138.1092  161.5575 C.ar    1  UNL1        0.1567
     35 F         139.2787  137.7222  160.8584 F       1  UNL1       -0.2028
     36 C         140.6660  137.9444  163.0438 C.ar    1  UNL1        0.0285
     37 C         141.9355  138.3314  163.7429 C.ar    1  UNL1        0.1002
     38 N         142.0535  138.1666  165.2291 N.ar    1  UNL1       -0.2104
     39 C         142.6935  139.3097  168.3328 C.3     1  UNL1        0.2542
     40 O         143.4408  138.3889  167.4145 O.3     1  UNL1       -0.4561
@<TRIPOS>BOND
     1    39    40    1
     2    40    28    1
     3    28    29   ar
     4    29    30   ar
     5    30    31   ar
     6    31    32   ar
     7    32    33   ar
     8    33    34   ar
     9    34    35    1
    10    34    36   ar
    11    36    27    1
    12    24    27    1
    13    24    25    1
    14    25    26    1
    15    24     1    1
    16     1     2    1
    17     2     3    1
    18     3     4    1
    19     4     9    1
    20     9    11    1
    21    11    12    1
    22    12    13   ar
    23    13    14   ar
    24    14    15   ar
    25    15    16   ar
    26    16    17   ar
    27    16    18    1
    28    18    19   am
    29    19    20    2
    30    19    21    1
    31    21    22    1
    32     4     5    1
    33     5     6    1
    34     4     7    1
    35     7     8    1
    36    36    37   ar
    37    37    38   ar
    38    38    28   ar
    39    37    31   ar
    40     6     1    1
    41     8     1    1
    42    17    12   ar
    43    22    15    1
    44     9    10    1
    45    18    23    1
@<TRIPOS>MOLECULE
*****
 40 45 0 0 0
SMALL
GASTEIGER

@<TRIPOS>ATOM
      1 C         142.5979  144.0555  160.3782 C.3     1  UNL1        0.1180
      2 C         142.8406  144.3800  161.8224 C.3     1  UNL1        0.0311
      3 C         143.8846  143.6293  162.5946 C.3     1  UNL1        0.0194
      4 C         144.6860  142.5540  161.9226 C.3     1  UNL1        0.0700
      5 C         144.4433  142.2295  160.4783 C.3     1  UNL1        0.0194
      6 C         143.3992  142.9803  159.7062 C.3     1  UNL1        0.0311
      7 C         144.1248  142.9381  161.4584 C.3     1  UNL1        0.1563
      8 O         143.1808  143.6170  160.7602 O.3     1  UNL1       -0.3548
      9 N         145.7301  141.8033  162.6948 N.3     1  UNL1       -0.2926
     10 H         146.3299  142.5014  163.1344 H       1  UNL1        0.1236
     11 C         145.3206  140.8437  163.7725 C.3     1  UNL1        0.1152
     12 C         144.0872  140.0071  163.6028 C.ar    1  UNL1        0.0765
     13 C         144.0469  138.9341  162.5554 C.ar    1  UNL1        0.0193
     14 C         142.8135  138.0975  162.3857 C.ar    1  UNL1        0.0411
     15 C         141.6203  138.3339  163.2634 C.ar    1  UNL1        0.1708
     16 C         141.6605  139.4069  164.3108 C.ar    1  UNL1        0.1682
     17 N         142.8940  140.2435  164.4806 N.ar    1  UNL1       -0.2304
     18 N         140.4673  139.6432  165.1886 N.am    1  UNL1       -0.2639
     19 C         139.2339  138.8067  165.0189 C.2     1  UNL1        0.2718
     20 O         138.0408  139.0430  165.8967 O.2     1  UNL1       -0.2707
     21 C         139.1937  137.7336  163.9715 C.3     1  UNL1        0.2898
     22 O         140.3869  137.4973  163.0937 O.3     1  UNL1       -0.4628
     23 H         140.4937  140.3475  165.8760 H       1  UNL1        0.1565
     24 C         141.5538  144.8062  159.6060 C.3     1  UNL1        0.1444
     25 O         141.9644  145.8055  158.5655 O.3     1  UNL1       -0.3508
     26 C         141.1537  145.9603  157.3130 C.3     1  UNL1        0.1741
     27 C         140.0990  144.5577  159.8744 C.3     1  UNL1        0.0622
     28 C         137.8539  143.1031  163.4929 C.ar    1  UNL1        0.2250
     29 C         137.3282  141.6989  163.5349 C.ar    1  UNL1        0.0593
     30 C         137.5510  140.7795  162.3708 C.ar    1  UNL1        0.0254
     31 C         138.2993  141.2643  161.1647 C.ar    1  UNL1        0.0990
     32 N         138.5220  140.3449  160.0006 N.ar    1  UNL1       -0.2400
     33 C         139.2704  140.8298  158.7944 C.ar    1  UNL1        0.1281
     34 C         139.7961  142.2341  158.7523 C.ar    1  UNL1        0.1567
     35 F         140.5445  142.7189  157.5462 F       1  UNL1       -0.2028
     36 C         139.5734  143.1534  159.9164 C.ar    1  UNL1        0.0285
     37 C         138.8250  142.6685  161.1226 C.ar    1  UNL1        0.1002
     38 N         138.6023  143.5879  162.2867 N.ar    1  UNL1       -0.2104
     39 C         138.7691  144.8358  165.1987 C.3     1  UNL1        0.2542
     40 O         137.6312  144.0225  164.6570 O.3     1  UNL1       -0.4561
@<TRIPOS>BOND
     1    39    40    1
     2    40    28    1
     3    28    29   ar
     4    29    30   ar
     5    30    31   ar
     6    31    32   ar
     7    32    33   ar
     8    33    34   ar
     9    34    35    1
    10    34    36   ar
    11    36    27    1
    12    24    27    1
    13    24    25    1
    14    25    26    1
    15    24     1    1
    16     1     2    1
    17     2     3    1
    18     3     4    1
    19     4     9    1
    20     9    11    1
    21    11    12    1
    22    12    13   ar
    23    13    14   ar
    24    14    15   ar
    25    15    16   ar
    26    16    17   ar
    27    16    18    1
    28    18    19   am
    29    19    20    2
    30    19    21    1
    31    21    22    1
    32     4     5    1
    33     5     6    1
    34     4     7    1
    35     7     8    1
    36    36    37   ar
    37    37    38   ar
    38    38    28   ar
    39    37    31   ar
    40     6     1    1
    41     8     1    1
    42    17    12   ar
    43    22    15    1
    44     9    10    1
    45    18    23    1
@<TRIPOS>MOLECULE
*****
 40 45 0 0 0
SMALL
GASTEIGER

@<TRIPOS>ATOM
      1 C         140.0518  143.2000  162.3872 C.3     1  UNL1        0.1180
      2 C         139.6421  141.9266  161.7085 C.3     1  UNL1        0.0311
      3 C         138.8680  140.8887  162.4656 C.3     1  UNL1        0.0194
      4 C         138.5034  141.1241  163.9015 C.3     1  UNL1        0.0700
      5 C         138.9130  142.3975  164.5802 C.3     1  UNL1        0.0194
      6 C         139.6872  143.4355  163.8231 C.3     1  UNL1        0.0311
      7 C         138.9284  141.7221  163.5278 C.3     1  UNL1        0.1563
      8 O         139.6285  142.6606  162.8432 O.3     1  UNL1       -0.3548
      9 N         137.7292  140.0861  164.6586 N.3     1  UNL1       -0.2926
     10 H         137.1423  139.6025  163.9789 H       1  UNL1        0.1236
     11 C         138.4547  139.0275  165.4351 C.3     1  UNL1        0.1152
     12 C         139.5503  139.4121  166.3847 C.ar    1  UNL1        0.0765
     13 C         140.9822  139.1476  166.0246 C.ar    1  UNL1        0.0193
     14 C         142.0777  139.5322  166.9742 C.ar    1  UNL1        0.0411
     15 C         141.7414  140.1813  168.2840 C.ar    1  UNL1        0.1708
     16 C         140.3096  140.4458  168.6441 C.ar    1  UNL1        0.1682
     17 N         139.2139  140.0612  167.6945 N.ar    1  UNL1       -0.2304
     18 N         139.9732  141.0949  169.9539 N.am    1  UNL1       -0.2639
     19 C         141.0688  141.4795  170.9035 C.2     1  UNL1        0.2718
     20 O         140.7324  142.1287  172.2133 O.2     1  UNL1       -0.2707
     21 C         142.5007  141.2150  170.5434 C.3     1  UNL1        0.2898
     22 O         142.8370  140.5659  169.2336 O.3     1  UNL1       -0.4628
     23 H         139.0334  141.2685  170.1903 H       1  UNL1        0.1565
     24 C         140.8259  144.2380  161.6301 C.3     1  UNL1        0.1444
     25 O         140.1023  145.3427  160.9188 O.3     1  UNL1       -0.3508
     26 C         139.5967  146.5261  161.6895 C.3     1  UNL1        0.1741
     27 C         142.3238  144.1712  161.5843 C.3     1  UNL1        0.0622
     28 C         143.7019  139.8881  161.5079 C.ar    1  UNL1        0.2250
     29 C         144.4634  139.3245  162.6708 C.ar    1  UNL1        0.0593
     30 C         144.7656  140.1885  163.8591 C.ar    1  UNL1        0.0254
     31 C         144.3063  141.6162  163.8846 C.ar    1  UNL1        0.0990
     32 N         144.6085  142.4802  165.0729 N.ar    1  UNL1       -0.2400
     33 C         144.1492  143.9079  165.0984 C.ar    1  UNL1        0.1281
     34 C         143.3876  144.4716  163.9355 C.ar    1  UNL1        0.1567
     35 F         142.9282  145.8993  163.9610 F       1  UNL1       -0.2028
     36 C         143.0854  143.6076  162.7472 C.ar    1  UNL1        0.0285
     37 C         143.5447  142.1798  162.7217 C.ar    1  UNL1        0.1002
     38 N         143.2425  141.3158  161.5334 N.ar    1  UNL1       -0.2104
     39 C         142.1336  138.2208  160.2790 C.3     1  UNL1        0.2542
     40 O         143.3996  139.0241  160.3196 O.3     1  UNL1       -0.4561
@<TRIPOS>BOND
     1    39    40    1
     2    40    28    1
     3    28    29   ar
     4    29    30   ar
     5    30    31   ar
     6    31    32   ar
     7    32    33   ar
     8    33    34   ar
     9    34    35    1
    10    34    36   ar
    11    36    27    1
    12    24    27    1
    13    24    25    1
    14    25    26    1
    15    24     1    1
    16     1     2    1
    17     2     3    1
    18     3     4    1
    19     4     9    1
    20     9    11    1
    21    11    12    1
    22    12    13   ar
    23    13    14   ar
    24    14    15   ar
    25    15    16   ar
    26    16    17   ar
    27    16    18    1
    28    18    19   am
    29    19    20    2
    30    19    21    1
    31    21    22    1
    32     4     5    1
    33     5     6    1
    34     4     7    1
    35     7     8    1
    36    36    37   ar
    37    37    38   ar
    38    38    28   ar
    39    37    31   ar
    40     6     1    1
    41     8     1    1
    42    17    12   ar
    43    22    15    1
    44     9    10    1
    45    18    23    1
