@<TRIPOS>MOLECULE
*****
 27 31 0 0 0
SMALL
GASTEIGER

@<TRIPOS>ATOM
      1 C         141.0296  141.6230  165.0559 C.2     1  UNL1        0.0626
      2 N         140.2565  141.4081  166.3232 N.2     1  UNL1       -0.2497
      3 C         139.5205  140.1066  166.2023 C.ar    1  UNL1        0.0773
      4 C         138.6017  139.3822  167.1408 C.ar    1  UNL1        0.0188
      5 C         138.0012  138.0682  166.7372 C.ar    1  UNL1        0.0015
      6 C         138.3195  137.4787  165.3952 C.ar    1  UNL1       -0.0002
      7 C         139.2384  138.2032  164.4566 C.ar    1  UNL1       -0.0024
      8 C         139.8389  139.5171  164.8602 C.ar    1  UNL1        0.0007
      9 C         140.7715  140.4543  164.1517 C.3     1  UNL1        0.0640
     10 C         143.6612  145.1537  164.1292 C.ar    1  UNL1        0.0000
     11 C         142.1945  145.2100  163.8203 C.ar    1  UNL1        0.0000
     12 C         141.3173  144.0330  164.1292 C.ar    1  UNL1        0.0012
     13 C         141.9068  142.7999  164.7470 C.ar    1  UNL1        0.0139
     14 C         143.3735  142.7437  165.0559 C.ar    1  UNL1        0.0012
     15 C         144.2507  143.9206  164.7471 C.ar    1  UNL1        0.0000
     16 C         141.3453  140.2573  162.7799 C.3     1  UNL1        0.0131
     17 C         142.6293  139.5019  162.6053 C.3     1  UNL1        0.0222
     18 C         143.2031  139.3049  161.2334 C.3     1  UNL1        0.0908
     19 N         142.4928  139.8634  160.0361 N.pl3   1  UNL1       -0.3075
     20 C         141.2088  140.6189  160.2106 C.3     1  UNL1        0.0908
     21 C         140.6350  140.8159  161.5825 C.3     1  UNL1        0.0222
     22 C         143.0666  139.6665  158.6642 C.ar    1  UNL1        0.0478
     23 C         144.0490  140.6569  158.1128 C.ar    1  UNL1        0.0145
     24 C         144.6227  140.4598  156.7409 C.ar    1  UNL1        0.0013
     25 C         144.2141  139.2724  155.9206 C.ar    1  UNL1        0.0001
     26 C         143.2317  138.2820  156.4720 C.ar    1  UNL1        0.0013
     27 C         142.6580  138.4791  157.8438 C.ar    1  UNL1        0.0145
@<TRIPOS>BOND
     1    10    11   ar
     2    11    12   ar
     3    12    13   ar
     4    13     1    1
     5     1     2    2
     6     2     3    1
     7     3     4   ar
     8     4     5   ar
     9     5     6   ar
    10     6     7   ar
    11     7     8   ar
    12     8     9    1
    13     9    16    1
    14    16    17    1
    15    17    18    1
    16    18    19    1
    17    19    22    1
    18    22    23   ar
    19    23    24   ar
    20    24    25   ar
    21    25    26   ar
    22    26    27   ar
    23    19    20    1
    24    20    21    1
    25    13    14   ar
    26    14    15   ar
    27    15    10   ar
    28     9     1    1
    29    21    16    1
    30     8     3   ar
    31    27    22   ar
@<TRIPOS>MOLECULE
*****
 27 31 0 0 0
SMALL
GASTEIGER

@<TRIPOS>ATOM
      1 C         141.0333  141.6211  165.0570 C.2     1  UNL1        0.0626
      2 N         140.2670  141.4047  166.3282 N.2     1  UNL1       -0.2497
      3 C         139.5343  140.1010  166.2116 C.ar    1  UNL1        0.0773
      4 C         138.6222  139.3744  167.1551 C.ar    1  UNL1        0.0188
      5 C         138.0236  138.0585  166.7552 C.ar    1  UNL1        0.0015
      6 C         138.3371  137.4691  165.4119 C.ar    1  UNL1       -0.0002
      7 C         139.2492  138.1957  164.4685 C.ar    1  UNL1       -0.0024
      8 C         139.8478  139.5117  164.8683 C.ar    1  UNL1        0.0007
      9 C         140.7742  140.4511  164.1548 C.3     1  UNL1        0.0640
     10 C         143.6500  145.1589  164.1155 C.ar    1  UNL1        0.0000
     11 C         144.2462  143.9279  164.7311 C.ar    1  UNL1        0.0000
     12 C         143.3739  142.7486  165.0450 C.ar    1  UNL1        0.0012
     13 C         141.9056  142.8004  164.7432 C.ar    1  UNL1        0.0139
     14 C         141.3094  144.0314  164.1275 C.ar    1  UNL1        0.0012
     15 C         142.1817  145.2107  163.8136 C.ar    1  UNL1        0.0000
     16 C         141.3419  140.2550  162.7802 C.3     1  UNL1        0.0131
     17 C         140.6283  140.8174  161.5868 C.3     1  UNL1        0.0222
     18 C         141.1959  140.6212  160.2123 C.3     1  UNL1        0.0908
     19 N         142.4773  139.8627  160.0312 N.pl3   1  UNL1       -0.3075
     20 C         143.1909  139.3003  161.2247 C.3     1  UNL1        0.0908
     21 C         142.6233  139.4964  162.5992 C.3     1  UNL1        0.0222
     22 C         143.0449  139.6666  158.6567 C.ar    1  UNL1        0.0478
     23 C         142.6348  138.4782  157.8384 C.ar    1  UNL1        0.0145
     24 C         143.2025  138.2822  156.4638 C.ar    1  UNL1        0.0013
     25 C         144.1803  139.2745  155.9077 C.ar    1  UNL1        0.0001
     26 C         144.5904  140.4629  156.7260 C.ar    1  UNL1        0.0013
     27 C         144.0226  140.6589  158.1005 C.ar    1  UNL1        0.0145
@<TRIPOS>BOND
     1    10    11   ar
     2    11    12   ar
     3    12    13   ar
     4    13     1    1
     5     1     2    2
     6     2     3    1
     7     3     4   ar
     8     4     5   ar
     9     5     6   ar
    10     6     7   ar
    11     7     8   ar
    12     8     9    1
    13     9    16    1
    14    16    17    1
    15    17    18    1
    16    18    19    1
    17    19    22    1
    18    22    23   ar
    19    23    24   ar
    20    24    25   ar
    21    25    26   ar
    22    26    27   ar
    23    19    20    1
    24    20    21    1
    25    13    14   ar
    26    14    15   ar
    27    15    10   ar
    28     9     1    1
    29    21    16    1
    30     8     3   ar
    31    27    22   ar
@<TRIPOS>MOLECULE
*****
 27 31 0 0 0
SMALL
GASTEIGER

@<TRIPOS>ATOM
      1 C         141.8903  140.6856  165.7144 C.2     1  UNL1        0.0626
      2 N         141.4259  140.8171  167.1347 N.2     1  UNL1       -0.2497
      3 C         140.1240  140.0840  167.2665 C.ar    1  UNL1        0.0773
      4 C         139.2044  139.8733  168.4326 C.ar    1  UNL1        0.0188
      5 C         137.9444  139.0779  168.2600 C.ar    1  UNL1        0.0015
      6 C         137.6041  138.4932  166.9212 C.ar    1  UNL1       -0.0002
      7 C         138.5237  138.7039  165.7551 C.ar    1  UNL1       -0.0024
      8 C         139.7836  139.4993  165.9277 C.ar    1  UNL1        0.0007
      9 C         140.8753  139.8711  164.9685 C.3     1  UNL1        0.0640
     10 C         145.6654  142.4283  163.9936 C.ar    1  UNL1        0.0000
     11 C         144.6044  143.3341  164.5446 C.ar    1  UNL1        0.0000
     12 C         143.3460  142.7532  165.1182 C.ar    1  UNL1        0.0012
     13 C         143.1487  141.2665  165.1408 C.ar    1  UNL1        0.0139
     14 C         144.2097  140.3606  164.5899 C.ar    1  UNL1        0.0012
     15 C         145.4681  140.9415  164.0163 C.ar    1  UNL1        0.0000
     16 C         140.9404  139.4945  163.5180 C.3     1  UNL1        0.0131
     17 C         141.4360  138.1368  163.1171 C.3     1  UNL1        0.0222
     18 C         141.5011  137.7602  161.6666 C.3     1  UNL1        0.0908
     19 N         141.0707  138.7414  160.6170 N.pl3   1  UNL1       -0.3075
     20 C         140.5752  140.0993  161.0178 C.3     1  UNL1        0.0908
     21 C         140.5100  140.4759  162.4683 C.3     1  UNL1        0.0222
     22 C         141.1359  138.3649  159.1665 C.ar    1  UNL1        0.0478
     23 C         142.4659  138.1632  158.5029 C.ar    1  UNL1        0.0145
     24 C         142.5310  137.7867  157.0524 C.ar    1  UNL1        0.0013
     25 C         141.2661  137.6117  156.2655 C.ar    1  UNL1        0.0001
     26 C         139.9360  137.8134  156.9290 C.ar    1  UNL1        0.0013
     27 C         139.8709  138.1899  158.3795 C.ar    1  UNL1        0.0145
@<TRIPOS>BOND
     1    10    11   ar
     2    11    12   ar
     3    12    13   ar
     4    13     1    1
     5     1     2    2
     6     2     3    1
     7     3     4   ar
     8     4     5   ar
     9     5     6   ar
    10     6     7   ar
    11     7     8   ar
    12     8     9    1
    13     9    16    1
    14    16    17    1
    15    17    18    1
    16    18    19    1
    17    19    22    1
    18    22    23   ar
    19    23    24   ar
    20    24    25   ar
    21    25    26   ar
    22    26    27   ar
    23    19    20    1
    24    20    21    1
    25    13    14   ar
    26    14    15   ar
    27    15    10   ar
    28     9     1    1
    29    21    16    1
    30     8     3   ar
    31    27    22   ar
@<TRIPOS>MOLECULE
*****
 27 31 0 0 0
SMALL
GASTEIGER

@<TRIPOS>ATOM
      1 C         141.1700  141.9286  165.2050 C.2     1  UNL1        0.0626
      2 N         141.0985  141.8091  166.6985 N.2     1  UNL1       -0.2497
      3 C         140.0117  140.8312  167.0338 C.ar    1  UNL1        0.0773
      4 C         139.4911  140.3196  168.3442 C.ar    1  UNL1        0.0188
      5 C         138.3702  139.3231  168.3683 C.ar    1  UNL1        0.0015
      6 C         137.7699  138.8382  167.0821 C.ar    1  UNL1       -0.0002
      7 C         138.2905  139.3498  165.7716 C.ar    1  UNL1       -0.0024
      8 C         139.4114  140.3463  165.7475 C.ar    1  UNL1        0.0007
      9 C         140.1273  141.0246  164.6173 C.3     1  UNL1        0.0640
     10 C         144.0131  144.5408  162.8935 C.ar    1  UNL1        0.0000
     11 C         144.3282  143.0890  163.1005 C.ar    1  UNL1        0.0000
     12 C         143.3805  142.2183  163.8710 C.ar    1  UNL1        0.0012
     13 C         142.1177  142.7994  164.4345 C.ar    1  UNL1        0.0139
     14 C         141.8026  144.2512  164.2275 C.ar    1  UNL1        0.0012
     15 C         142.7503  145.1219  163.4570 C.ar    1  UNL1        0.0000
     16 C         139.8492  140.8324  163.1558 C.3     1  UNL1        0.0131
     17 C         138.9812  141.8114  162.4225 C.3     1  UNL1        0.0222
     18 C         138.7031  141.6193  160.9610 C.3     1  UNL1        0.0908
     19 N         139.2932  140.4481  160.2329 N.pl3   1  UNL1       -0.3075
     20 C         140.1613  139.4691  160.9663 C.3     1  UNL1        0.0908
     21 C         140.4393  139.6612  162.4277 C.3     1  UNL1        0.0222
     22 C         139.0151  140.2560  158.7715 C.ar    1  UNL1        0.0478
     23 C         139.7601  139.2091  157.9976 C.ar    1  UNL1        0.0145
     24 C         139.4820  139.0170  156.5361 C.ar    1  UNL1        0.0013
     25 C         138.4590  139.8719  155.8487 C.ar    1  UNL1        0.0001
     26 C         137.7140  140.9188  156.6226 C.ar    1  UNL1        0.0013
     27 C         137.9921  141.1109  158.0841 C.ar    1  UNL1        0.0145
@<TRIPOS>BOND
     1    10    11   ar
     2    11    12   ar
     3    12    13   ar
     4    13     1    1
     5     1     2    2
     6     2     3    1
     7     3     4   ar
     8     4     5   ar
     9     5     6   ar
    10     6     7   ar
    11     7     8   ar
    12     8     9    1
    13     9    16    1
    14    16    17    1
    15    17    18    1
    16    18    19    1
    17    19    22    1
    18    22    23   ar
    19    23    24   ar
    20    24    25   ar
    21    25    26   ar
    22    26    27   ar
    23    19    20    1
    24    20    21    1
    25    13    14   ar
    26    14    15   ar
    27    15    10   ar
    28     9     1    1
    29    21    16    1
    30     8     3   ar
    31    27    22   ar
@<TRIPOS>MOLECULE
*****
 27 31 0 0 0
SMALL
GASTEIGER

@<TRIPOS>ATOM
      1 C         140.7350  142.5735  165.3856 C.2     1  UNL1        0.0626
      2 N         140.9162  142.8129  166.8552 N.2     1  UNL1       -0.2497
      3 C         141.5665  141.5972  167.4462 C.ar    1  UNL1        0.0773
      4 C         141.9862  141.2644  168.8472 C.ar    1  UNL1        0.0188
      5 C         142.6266  139.9408  169.1438 C.ar    1  UNL1        0.0015
      6 C         142.8474  138.9501  168.0394 C.ar    1  UNL1       -0.0002
      7 C         142.4277  139.2830  166.6383 C.ar    1  UNL1       -0.0024
      8 C         141.7873  140.6065  166.3417 C.ar    1  UNL1        0.0007
      9 C         141.2734  141.2099  165.0682 C.3     1  UNL1        0.0640
     10 C         138.8988  145.4426  162.4450 C.ar    1  UNL1        0.0000
     11 C         140.3722  145.4926  162.7215 C.ar    1  UNL1        0.0000
     12 C         140.9843  144.5363  163.7017 C.ar    1  UNL1        0.0012
     13 C         140.1229  143.5299  164.4054 C.ar    1  UNL1        0.0139
     14 C         138.6495  143.4798  164.1289 C.ar    1  UNL1        0.0012
     15 C         138.0374  144.4362  163.1487 C.ar    1  UNL1        0.0000
     16 C         141.2942  140.5632  163.7149 C.3     1  UNL1        0.0131
     17 C         142.5458  140.5925  162.8889 C.3     1  UNL1        0.0222
     18 C         142.5667  139.9458  161.5356 C.3     1  UNL1        0.0908
     19 N         141.3358  139.2698  161.0084 N.pl3   1  UNL1       -0.3075
     20 C         140.0841  139.2405  161.8344 C.3     1  UNL1        0.0908
     21 C         140.0633  139.8872  163.1877 C.3     1  UNL1        0.0222
     22 C         141.3567  138.6231  159.6551 C.ar    1  UNL1        0.0478
     23 C         142.6317  138.0397  159.1222 C.ar    1  UNL1        0.0145
     24 C         142.6524  137.3930  157.7688 C.ar    1  UNL1        0.0013
     25 C         141.3982  137.3298  156.9486 C.ar    1  UNL1        0.0001
     26 C         140.1232  137.9131  157.4815 C.ar    1  UNL1        0.0013
     27 C         140.1025  138.5598  158.8348 C.ar    1  UNL1        0.0145
@<TRIPOS>BOND
     1    10    11   ar
     2    11    12   ar
     3    12    13   ar
     4    13     1    1
     5     1     2    2
     6     2     3    1
     7     3     4   ar
     8     4     5   ar
     9     5     6   ar
    10     6     7   ar
    11     7     8   ar
    12     8     9    1
    13     9    16    1
    14    16    17    1
    15    17    18    1
    16    18    19    1
    17    19    22    1
    18    22    23   ar
    19    23    24   ar
    20    24    25   ar
    21    25    26   ar
    22    26    27   ar
    23    19    20    1
    24    20    21    1
    25    13    14   ar
    26    14    15   ar
    27    15    10   ar
    28     9     1    1
    29    21    16    1
    30     8     3   ar
    31    27    22   ar
@<TRIPOS>MOLECULE
*****
 27 31 0 0 0
SMALL
GASTEIGER

@<TRIPOS>ATOM
      1 C         141.5964  141.3888  164.7776 C.2     1  UNL1        0.0626
      2 N         141.1081  142.3834  165.7887 N.2     1  UNL1       -0.2497
      3 C         139.9343  143.1069  165.1980 C.ar    1  UNL1        0.0773
      4 C         139.0508  144.1934  165.7354 C.ar    1  UNL1        0.0188
      5 C         137.9302  144.7324  164.8966 C.ar    1  UNL1        0.0015
      6 C         137.6931  144.1850  163.5204 C.ar    1  UNL1       -0.0002
      7 C         138.5766  143.0984  162.9829 C.ar    1  UNL1       -0.0024
      8 C         139.6972  142.5594  163.8217 C.ar    1  UNL1        0.0007
      9 C         140.7244  141.4976  163.5620 C.3     1  UNL1        0.0640
     10 C         145.0676  138.5732  165.2996 C.ar    1  UNL1        0.0000
     11 C         143.8100  138.3682  166.0911 C.ar    1  UNL1        0.0000
     12 C         142.6530  139.3067  165.9171 C.ar    1  UNL1        0.0012
     13 C         142.7534  140.4503  164.9516 C.ar    1  UNL1        0.0139
     14 C         144.0110  140.6553  164.1601 C.ar    1  UNL1        0.0012
     15 C         145.1681  139.7167  164.3341 C.ar    1  UNL1        0.0000
     16 C         140.8564  140.6869  162.3068 C.3     1  UNL1        0.0131
     17 C         140.3402  139.2792  162.2654 C.3     1  UNL1        0.0222
     18 C         140.4722  138.4685  161.0103 C.3     1  UNL1        0.0908
     19 N         141.1205  139.0655  159.7965 N.pl3   1  UNL1       -0.3075
     20 C         141.6367  140.4733  159.8379 C.3     1  UNL1        0.0908
     21 C         141.5047  141.2840  161.0930 C.3     1  UNL1        0.0222
     22 C         141.2525  138.2548  158.5414 C.ar    1  UNL1        0.0478
     23 C         140.0628  138.0529  157.6503 C.ar    1  UNL1        0.0145
     24 C         140.1949  137.2422  156.3952 C.ar    1  UNL1        0.0013
     25 C         141.5166  136.6334  156.0312 C.ar    1  UNL1        0.0001
     26 C         142.7062  136.8353  156.9223 C.ar    1  UNL1        0.0013
     27 C         142.5741  137.6460  158.1774 C.ar    1  UNL1        0.0145
@<TRIPOS>BOND
     1    10    11   ar
     2    11    12   ar
     3    12    13   ar
     4    13     1    1
     5     1     2    2
     6     2     3    1
     7     3     4   ar
     8     4     5   ar
     9     5     6   ar
    10     6     7   ar
    11     7     8   ar
    12     8     9    1
    13     9    16    1
    14    16    17    1
    15    17    18    1
    16    18    19    1
    17    19    22    1
    18    22    23   ar
    19    23    24   ar
    20    24    25   ar
    21    25    26   ar
    22    26    27   ar
    23    19    20    1
    24    20    21    1
    25    13    14   ar
    26    14    15   ar
    27    15    10   ar
    28     9     1    1
    29    21    16    1
    30     8     3   ar
    31    27    22   ar
@<TRIPOS>MOLECULE
*****
 27 31 0 0 0
SMALL
GASTEIGER

@<TRIPOS>ATOM
      1 C         140.8323  141.7235  160.9169 C.2     1  UNL1        0.0626
      2 N         140.8137  141.3074  159.4759 N.2     1  UNL1       -0.2497
      3 C         141.5255  139.9918  159.3640 C.ar    1  UNL1        0.0773
      4 C         141.8153  139.1041  158.1902 C.ar    1  UNL1        0.0188
      5 C         142.5636  137.8193  158.3882 C.ar    1  UNL1        0.0015
      6 C         143.0221  137.4222  159.7601 C.ar    1  UNL1       -0.0002
      7 C         142.7323  138.3099  160.9340 C.ar    1  UNL1       -0.0024
      8 C         141.9840  139.5947  160.7359 C.ar    1  UNL1        0.0007
      9 C         141.5556  140.6649  161.6956 C.3     1  UNL1        0.0640
     10 C         139.0342  145.4865  162.6070 C.ar    1  UNL1        0.0000
     11 C         140.3363  145.5452  161.8649 C.ar    1  UNL1        0.0000
     12 C         140.9357  144.2908  161.3015 C.ar    1  UNL1        0.0012
     13 C         140.2329  142.9778  161.4803 C.ar    1  UNL1        0.0139
     14 C         138.9308  142.9191  162.2225 C.ar    1  UNL1        0.0012
     15 C         138.3314  144.1734  162.7858 C.ar    1  UNL1        0.0000
     16 C         141.8064  140.6748  163.1745 C.3     1  UNL1        0.0131
     17 C         140.7555  140.1677  164.1169 C.3     1  UNL1        0.0222
     18 C         141.0063  140.1776  165.5957 C.3     1  UNL1        0.0908
     19 N         142.3082  140.6947  166.1322 N.pl3   1  UNL1       -0.3075
     20 C         143.3592  141.2019  165.1898 C.3     1  UNL1        0.0908
     21 C         143.1083  141.1920  163.7109 C.3     1  UNL1        0.0222
     22 C         142.5590  140.7047  167.6110 C.ar    1  UNL1        0.0478
     23 C         142.3246  139.4634  168.4199 C.ar    1  UNL1        0.0145
     24 C         142.5755  139.4734  169.8987 C.ar    1  UNL1        0.0013
     25 C         143.0607  140.7246  170.5687 C.ar    1  UNL1        0.0001
     26 C         143.2951  141.9659  169.7599 C.ar    1  UNL1        0.0013
     27 C         143.0442  141.9559  168.2810 C.ar    1  UNL1        0.0145
@<TRIPOS>BOND
     1    10    11   ar
     2    11    12   ar
     3    12    13   ar
     4    13     1    1
     5     1     2    2
     6     2     3    1
     7     3     4   ar
     8     4     5   ar
     9     5     6   ar
    10     6     7   ar
    11     7     8   ar
    12     8     9    1
    13     9    16    1
    14    16    17    1
    15    17    18    1
    16    18    19    1
    17    19    22    1
    18    22    23   ar
    19    23    24   ar
    20    24    25   ar
    21    25    26   ar
    22    26    27   ar
    23    19    20    1
    24    20    21    1
    25    13    14   ar
    26    14    15   ar
    27    15    10   ar
    28     9     1    1
    29    21    16    1
    30     8     3   ar
    31    27    22   ar
@<TRIPOS>MOLECULE
*****
 27 31 0 0 0
SMALL
GASTEIGER

@<TRIPOS>ATOM
      1 C         139.6432  141.5178  162.4128 C.2     1  UNL1        0.0626
      2 N         138.9385  141.6892  163.7258 N.2     1  UNL1       -0.2497
      3 C         138.8159  140.3383  164.3660 C.ar    1  UNL1        0.0773
      4 C         138.2128  139.8945  165.6658 C.ar    1  UNL1        0.0188
      5 C         138.2387  138.4444  166.0482 C.ar    1  UNL1        0.0015
      6 C         138.8676  137.4379  165.1308 C.ar    1  UNL1       -0.0002
      7 C         139.4707  137.8817  163.8311 C.ar    1  UNL1       -0.0024
      8 C         139.4448  139.3318  163.4487 C.ar    1  UNL1        0.0007
      9 C         139.9561  140.0608  162.2416 C.3     1  UNL1        0.0640
     10 C         140.6430  144.7982  159.4992 C.ar    1  UNL1        0.0000
     11 C         141.3107  144.7584  160.8418 C.ar    1  UNL1        0.0000
     12 C         140.9774  143.6649  161.8130 C.ar    1  UNL1        0.0012
     13 C         139.9765  142.6113  161.4416 C.ar    1  UNL1        0.0139
     14 C         139.3089  142.6511  160.0990 C.ar    1  UNL1        0.0012
     15 C         139.6421  143.7446  159.1278 C.ar    1  UNL1        0.0000
     16 C         140.6573  139.4415  161.0690 C.3     1  UNL1        0.0131
     17 C         139.8686  138.9945  159.8740 C.3     1  UNL1        0.0222
     18 C         140.5697  138.3752  158.7014 C.3     1  UNL1        0.0908
     19 N         142.0596  138.2029  158.7239 N.pl3   1  UNL1       -0.3075
     20 C         142.8484  138.6498  159.9189 C.3     1  UNL1        0.0908
     21 C         142.1472  139.2691  161.0915 C.3     1  UNL1        0.0222
     22 C         142.7607  137.5836  157.5514 C.ar    1  UNL1        0.0478
     23 C         143.3345  138.4558  156.4743 C.ar    1  UNL1        0.0145
     24 C         144.0356  137.8363  155.3017 C.ar    1  UNL1        0.0013
     25 C         144.1630  136.3448  155.2063 C.ar    1  UNL1        0.0001
     26 C         143.5892  135.4726  156.2834 C.ar    1  UNL1        0.0013
     27 C         142.8881  136.0921  157.4560 C.ar    1  UNL1        0.0145
@<TRIPOS>BOND
     1    10    11   ar
     2    11    12   ar
     3    12    13   ar
     4    13     1    1
     5     1     2    2
     6     2     3    1
     7     3     4   ar
     8     4     5   ar
     9     5     6   ar
    10     6     7   ar
    11     7     8   ar
    12     8     9    1
    13     9    16    1
    14    16    17    1
    15    17    18    1
    16    18    19    1
    17    19    22    1
    18    22    23   ar
    19    23    24   ar
    20    24    25   ar
    21    25    26   ar
    22    26    27   ar
    23    19    20    1
    24    20    21    1
    25    13    14   ar
    26    14    15   ar
    27    15    10   ar
    28     9     1    1
    29    21    16    1
    30     8     3   ar
    31    27    22   ar
@<TRIPOS>MOLECULE
*****
 27 31 0 0 0
SMALL
GASTEIGER

@<TRIPOS>ATOM
      1 C         140.9431  142.6017  165.2002 C.2     1  UNL1        0.0626
      2 N         140.8893  142.6875  166.6967 N.2     1  UNL1       -0.2497
      3 C         141.5640  141.4699  167.2555 C.ar    1  UNL1        0.0773
      4 C         141.8104  141.0163  168.6638 C.ar    1  UNL1        0.0188
      5 C         142.5278  139.7243  168.9209 C.ar    1  UNL1        0.0015
      6 C         142.9986  138.8859  167.7696 C.ar    1  UNL1       -0.0002
      7 C         142.7521  139.3395  166.3613 C.ar    1  UNL1       -0.0024
      8 C         142.0348  140.6315  166.1042 C.ar    1  UNL1        0.0007
      9 C         141.6511  141.3310  164.8340 C.3     1  UNL1        0.0640
     10 C         139.2738  145.6254  162.3156 C.ar    1  UNL1        0.0000
     11 C         140.7430  145.6084  162.6175 C.ar    1  UNL1        0.0000
     12 C         141.2994  144.6005  163.5791 C.ar    1  UNL1        0.0012
     13 C         140.3867  143.6096  164.2387 C.ar    1  UNL1        0.0139
     14 C         138.9175  143.6266  163.9367 C.ar    1  UNL1        0.0012
     15 C         138.3611  144.6345  162.9752 C.ar    1  UNL1        0.0000
     16 C         141.9270  140.8451  163.4419 C.3     1  UNL1        0.0131
     17 C         140.9762  139.8945  162.7772 C.3     1  UNL1        0.0222
     18 C         141.2520  139.4085  161.3851 C.3     1  UNL1        0.0908
     19 N         142.4788  139.8733  160.6578 N.pl3   1  UNL1       -0.3075
     20 C         143.4297  140.8241  161.3226 C.3     1  UNL1        0.0908
     21 C         143.1538  141.3100  162.7146 C.3     1  UNL1        0.0222
     22 C         142.7547  139.3874  159.2658 C.ar    1  UNL1        0.0478
     23 C         142.4307  137.9726  158.8873 C.ar    1  UNL1        0.0145
     24 C         142.7066  137.4867  157.4952 C.ar    1  UNL1        0.0013
     25 C         143.3064  138.4157  156.4817 C.ar    1  UNL1        0.0001
     26 C         143.6304  139.8306  156.8602 C.ar    1  UNL1        0.0013
     27 C         143.3545  140.3164  158.2523 C.ar    1  UNL1        0.0145
@<TRIPOS>BOND
     1    10    11   ar
     2    11    12   ar
     3    12    13   ar
     4    13     1    1
     5     1     2    2
     6     2     3    1
     7     3     4   ar
     8     4     5   ar
     9     5     6   ar
    10     6     7   ar
    11     7     8   ar
    12     8     9    1
    13     9    16    1
    14    16    17    1
    15    17    18    1
    16    18    19    1
    17    19    22    1
    18    22    23   ar
    19    23    24   ar
    20    24    25   ar
    21    25    26   ar
    22    26    27   ar
    23    19    20    1
    24    20    21    1
    25    13    14   ar
    26    14    15   ar
    27    15    10   ar
    28     9     1    1
    29    21    16    1
    30     8     3   ar
    31    27    22   ar
