@<TRIPOS>MOLECULE
*****
 38 42 0 0 0
SMALL
GASTEIGER

@<TRIPOS>ATOM
      1 C         140.1099  139.6815  159.3125 C.3     1  UNL1        0.1631
      2 N         141.0343  138.7021  158.6521 N.ar    1  UNL1       -0.3047
      3 C         142.4173  138.3473  159.1116 C.ar    1  UNL1        0.1441
      4 N         142.9757  137.3314  158.1596 N.ar    1  UNL1       -0.2267
      5 C         141.9377  137.0585  157.1117 C.ar    1  UNL1        0.1010
      6 C         141.9301  136.1480  155.9197 C.ar    1  UNL1        0.0526
      7 C         140.7227  136.0846  155.0321 C.ar    1  UNL1        0.1690
      8 F         140.7151  135.1741  153.8400 F       1  UNL1       -0.2017
      9 C         139.5228  136.9318  155.3364 C.ar    1  UNL1        0.1689
     10 F         138.3153  136.8684  154.4487 F       1  UNL1       -0.2017
     11 C         139.5304  137.8422  156.5284 C.ar    1  UNL1        0.0507
     12 C         140.7378  137.9056  157.4161 C.ar    1  UNL1        0.0816
     13 C         143.1189  138.9095  160.3124 C.ar    1  UNL1        0.0342
     14 C         143.2515  138.0846  161.5581 C.ar    1  UNL1        0.0039
     15 C         143.9530  138.6469  162.7588 C.ar    1  UNL1        0.0115
     16 C         144.5219  140.0341  162.7138 C.ar    1  UNL1        0.0577
     17 CL        145.2234  140.5963  163.9145 Cl      1  UNL1       -0.0822
     18 C         144.3892  140.8590  161.4681 C.ar    1  UNL1        0.0115
     19 C         143.6877  140.2967  160.2674 C.ar    1  UNL1        0.0039
     20 C         139.7706  140.9720  158.6274 C.3     1  UNL1        0.0297
     21 C         138.3731  141.2180  158.1409 C.3     1  UNL1        0.0024
     22 C         138.0337  142.5085  157.4557 C.3     1  UNL1        0.0001
     23 C         139.0918  143.5530  157.2571 C.3     1  UNL1        0.0000
     24 C         140.4892  143.3070  157.7436 C.3     1  UNL1        0.0001
     25 C         140.8286  142.0166  158.4288 C.3     1  UNL1        0.0024
     26 N         140.1857  139.8881  161.9014 N.am    1  UNL1       -0.2824
     27 C         139.5247  139.3704  160.6583 C.2     1  UNL1        0.2468
     28 O         138.3263  138.5952  161.1196 O.2     1  UNL1       -0.2727
     29 H         141.0035  140.4321  161.8340 H       1  UNL1        0.1549
     30 C         138.4303  138.9546  165.9383 C.ar    1  UNL1        0.0141
     31 C         139.2595  137.9279  165.2255 C.ar    1  UNL1        0.0024
     32 C         139.8447  138.2391  163.8797 C.ar    1  UNL1        0.0147
     33 C         139.6005  139.5770  163.2470 C.ar    1  UNL1        0.0503
     34 C         138.7713  140.6037  163.9599 C.ar    1  UNL1        0.0147
     35 C         138.1862  140.2925  165.3055 C.ar    1  UNL1        0.0024
     36 O         136.7412  137.6354  167.4069 O.co2   1  UNL1       -0.5446
     37 C         137.8451  138.6435  167.2840 C.2     1  UNL1        0.0729
     38 O         138.3640  139.3405  168.5067 O.co2   1  UNL1       -0.5446
@<TRIPOS>UNITY_ATOM_ATTR
36 1
charge -1
@<TRIPOS>BOND
     1    36    37   ar
     2    37    38   ar
     3    37    30    1
     4    30    31   ar
     5    31    32   ar
     6    32    33   ar
     7    33    26    1
     8    26    27   am
     9    27    28    2
    10    27     1    1
    11     1    20    1
    12    20    21    1
    13    21    22    1
    14    22    23    1
    15    23    24    1
    16    24    25    1
    17     1     2    1
    18     2     3   ar
    19     3    13    1
    20    13    14   ar
    21    14    15   ar
    22    15    16   ar
    23    16    17    1
    24    16    18   ar
    25    18    19   ar
    26     3     4   ar
    27     4     5   ar
    28     5     6   ar
    29     6     7   ar
    30     7     8    1
    31     7     9   ar
    32     9    10    1
    33     9    11   ar
    34    11    12   ar
    35    33    34   ar
    36    34    35   ar
    37    35    30   ar
    38    25    20    1
    39    12     2   ar
    40    19    13   ar
    41    12     5   ar
    42    26    29    1
@<TRIPOS>MOLECULE
*****
 38 42 0 0 0
SMALL
GASTEIGER

@<TRIPOS>ATOM
      1 C         140.8896  141.6919  159.9587 C.3     1  UNL1        0.1631
      2 N         140.9491  143.1387  159.5673 N.ar    1  UNL1       -0.3047
      3 C         141.6383  144.2308  160.3304 C.ar    1  UNL1        0.1441
      4 N         141.4449  145.5145  159.5789 N.ar    1  UNL1       -0.2267
      5 C         140.6361  145.2157  158.3514 C.ar    1  UNL1        0.1010
      6 C         140.1391  146.0910  157.2393 C.ar    1  UNL1        0.0526
      7 C         139.3357  145.4980  156.1201 C.ar    1  UNL1        0.1690
      8 F         138.8386  146.3732  155.0079 F       1  UNL1       -0.2017
      9 C         139.0292  144.0296  156.1130 C.ar    1  UNL1        0.1689
     10 F         138.2257  143.4366  154.9937 F       1  UNL1       -0.2017
     11 C         139.5262  143.1543  157.2251 C.ar    1  UNL1        0.0507
     12 C         140.3297  143.7474  158.3443 C.ar    1  UNL1        0.0816
     13 C         142.3892  144.0679  161.6186 C.ar    1  UNL1        0.0342
     14 C         143.7162  143.3688  161.6300 C.ar    1  UNL1        0.0039
     15 C         144.4671  143.2058  162.9183 C.ar    1  UNL1        0.0115
     16 C         143.8909  143.7420  164.1952 C.ar    1  UNL1        0.0577
     17 CL        144.6417  143.5790  165.4835 Cl      1  UNL1       -0.0822
     18 C         142.5638  144.4411  164.1838 C.ar    1  UNL1        0.0115
     19 C         141.8130  144.6040  162.8955 C.ar    1  UNL1        0.0039
     20 C         141.5323  140.6526  159.0888 C.3     1  UNL1        0.0297
     21 C         140.8402  139.3438  158.8478 C.3     1  UNL1        0.0024
     22 C         141.4828  138.3044  157.9779 C.3     1  UNL1        0.0001
     23 C         142.8177  138.5739  157.3490 C.3     1  UNL1        0.0000
     24 C         143.5099  139.8826  157.5900 C.3     1  UNL1        0.0001
     25 C         142.8672  140.9219  158.4599 C.3     1  UNL1        0.0024
     26 N         140.9434  140.5732  162.3030 N.am    1  UNL1       -0.2824
     27 C         140.1874  141.2843  161.2200 C.2     1  UNL1        0.2468
     28 O         138.7802  141.4225  161.7205 O.2     1  UNL1       -0.2727
     29 H         141.9004  140.3740  162.1861 H       1  UNL1        0.1549
     30 C         138.8366  139.3504  166.0867 C.ar    1  UNL1        0.0141
     31 C         138.8940  138.4071  164.9219 C.ar    1  UNL1        0.0024
     32 C         139.5963  138.8147  163.6606 C.ar    1  UNL1        0.0147
     33 C         140.2411  140.1656  163.5643 C.ar    1  UNL1        0.0503
     34 C         140.1837  141.1089  164.7291 C.ar    1  UNL1        0.0147
     35 C         139.4814  140.7013  165.9903 C.ar    1  UNL1        0.0024
     36 O         137.0076  137.9542  167.2932 O.co2   1  UNL1       -0.5446
     37 C         138.1343  138.9429  167.3480 C.2     1  UNL1        0.0729
     38 O         138.5589  139.5241  168.6640 O.co2   1  UNL1       -0.5446
@<TRIPOS>UNITY_ATOM_ATTR
36 1
charge -1
@<TRIPOS>BOND
     1    36    37   ar
     2    37    38   ar
     3    37    30    1
     4    30    31   ar
     5    31    32   ar
     6    32    33   ar
     7    33    26    1
     8    26    27   am
     9    27    28    2
    10    27     1    1
    11     1    20    1
    12    20    21    1
    13    21    22    1
    14    22    23    1
    15    23    24    1
    16    24    25    1
    17     1     2    1
    18     2     3   ar
    19     3    13    1
    20    13    14   ar
    21    14    15   ar
    22    15    16   ar
    23    16    17    1
    24    16    18   ar
    25    18    19   ar
    26     3     4   ar
    27     4     5   ar
    28     5     6   ar
    29     6     7   ar
    30     7     8    1
    31     7     9   ar
    32     9    10    1
    33     9    11   ar
    34    11    12   ar
    35    33    34   ar
    36    34    35   ar
    37    35    30   ar
    38    25    20    1
    39    12     2   ar
    40    19    13   ar
    41    12     5   ar
    42    26    29    1
@<TRIPOS>MOLECULE
*****
 38 42 0 0 0
SMALL
GASTEIGER

@<TRIPOS>ATOM
      1 C         141.9602  141.8918  162.5349 C.3     1  UNL1        0.1631
      2 N         142.2043  140.8265  161.5074 N.ar    1  UNL1       -0.3047
      3 C         141.6784  139.4224  161.5510 C.ar    1  UNL1        0.1441
      4 N         142.1663  138.7066  160.3265 N.ar    1  UNL1       -0.2267
      5 C         142.9937  139.6682  159.5261 C.ar    1  UNL1        0.1010
      6 C         143.7287  139.5201  158.2269 C.ar    1  UNL1        0.0526
      7 C         144.4872  140.6822  157.6577 C.ar    1  UNL1        0.1690
      8 F         145.2222  140.5342  156.3585 F       1  UNL1       -0.2017
      9 C         144.5107  141.9925  158.3875 C.ar    1  UNL1        0.1689
     10 F         145.2692  143.1546  157.8182 F       1  UNL1       -0.2017
     11 C         143.7757  142.1406  159.6867 C.ar    1  UNL1        0.0507
     12 C         143.0172  140.9785  160.2559 C.ar    1  UNL1        0.0816
     13 C         140.8162  138.8370  162.6298 C.ar    1  UNL1        0.0342
     14 C         139.3831  139.2612  162.7573 C.ar    1  UNL1        0.0039
     15 C         138.5208  138.6757  163.8361 C.ar    1  UNL1        0.0115
     16 C         139.0916  137.6661  164.7873 C.ar    1  UNL1        0.0577
     17 CL        138.2293  137.0806  165.8660 Cl      1  UNL1       -0.0822
     18 C         140.5246  137.2419  164.6597 C.ar    1  UNL1        0.0115
     19 C         141.3869  137.8274  163.5810 C.ar    1  UNL1        0.0039
     20 C         141.3518  143.2010  162.1280 C.3     1  UNL1        0.0297
     21 C         141.4909  144.4012  163.0170 C.3     1  UNL1        0.0024
     22 C         140.8824  145.7105  162.6102 C.3     1  UNL1        0.0001
     23 C         140.1349  145.8196  161.3143 C.3     1  UNL1        0.0000
     24 C         139.9958  144.6195  160.4254 C.3     1  UNL1        0.0001
     25 C         140.6042  143.3102  160.8322 C.3     1  UNL1        0.0024
     26 N         141.2586  141.2973  164.9649 N.am    1  UNL1       -0.2824
     27 C         142.3246  141.6477  163.9695 C.2     1  UNL1        0.2468
     28 O         143.6144  141.6679  164.7349 O.2     1  UNL1       -0.2727
     29 H         140.3198  141.2274  164.6767 H       1  UNL1        0.1549
     30 C         142.3520  140.5650  169.2682 C.ar    1  UNL1        0.0141
     31 C         142.4963  139.4639  168.2599 C.ar    1  UNL1        0.0024
     32 C         142.1318  139.7080  166.8254 C.ar    1  UNL1        0.0147
     33 C         141.6230  141.0532  166.3993 C.ar    1  UNL1        0.0503
     34 C         141.4788  142.1543  167.4076 C.ar    1  UNL1        0.0147
     35 C         141.8433  141.9102  168.8420 C.ar    1  UNL1        0.0024
     36 O         143.7924  139.3337  171.0456 O.co2   1  UNL1       -0.5446
     37 C         142.7164  140.3210  170.7026 C.2     1  UNL1        0.0729
     38 O         142.0049  141.0643  171.7940 O.co2   1  UNL1       -0.5446
@<TRIPOS>UNITY_ATOM_ATTR
36 1
charge -1
@<TRIPOS>BOND
     1    36    37   ar
     2    37    38   ar
     3    37    30    1
     4    30    31   ar
     5    31    32   ar
     6    32    33   ar
     7    33    26    1
     8    26    27   am
     9    27    28    2
    10    27     1    1
    11     1    20    1
    12    20    21    1
    13    21    22    1
    14    22    23    1
    15    23    24    1
    16    24    25    1
    17     1     2    1
    18     2     3   ar
    19     3    13    1
    20    13    14   ar
    21    14    15   ar
    22    15    16   ar
    23    16    17    1
    24    16    18   ar
    25    18    19   ar
    26     3     4   ar
    27     4     5   ar
    28     5     6   ar
    29     6     7   ar
    30     7     8    1
    31     7     9   ar
    32     9    10    1
    33     9    11   ar
    34    11    12   ar
    35    33    34   ar
    36    34    35   ar
    37    35    30   ar
    38    25    20    1
    39    12     2   ar
    40    19    13   ar
    41    12     5   ar
    42    26    29    1
@<TRIPOS>MOLECULE
*****
 38 42 0 0 0
SMALL
GASTEIGER

@<TRIPOS>ATOM
      1 C         142.0002  141.3009  164.4439 C.3     1  UNL1        0.1631
      2 N         141.1035  140.8303  165.5505 N.ar    1  UNL1       -0.3047
      3 C         139.7188  140.2769  165.3882 C.ar    1  UNL1        0.1441
      4 N         139.1936  139.9351  166.7510 N.ar    1  UNL1       -0.2267
      5 C         140.2537  140.2774  167.7556 C.ar    1  UNL1        0.1010
      6 C         140.2966  140.1568  169.2501 C.ar    1  UNL1        0.0526
      7 C         141.5199  140.5894  170.0026 C.ar    1  UNL1        0.1690
      8 F         141.5628  140.4687  171.4972 F       1  UNL1       -0.2017
      9 C         142.7003  141.1427  169.2606 C.ar    1  UNL1        0.1689
     10 F         143.9236  141.5753  170.0132 F       1  UNL1       -0.2017
     11 C         142.6573  141.2633  167.7661 C.ar    1  UNL1        0.0507
     12 C         141.4340  140.8307  167.0136 C.ar    1  UNL1        0.0816
     13 C         138.9878  140.0967  164.0908 C.ar    1  UNL1        0.0342
     14 C         138.4187  141.2881  163.3789 C.ar    1  UNL1        0.0039
     15 C         137.6876  141.1079  162.0816 C.ar    1  UNL1        0.0115
     16 C         137.5256  139.7365  161.4961 C.ar    1  UNL1        0.0577
     17 CL        136.7946  139.5563  160.1988 Cl      1  UNL1       -0.0822
     18 C         138.0947  138.5451  162.2080 C.ar    1  UNL1        0.0115
     19 C         138.8258  138.7253  163.5054 C.ar    1  UNL1        0.0039
     20 C         142.6778  142.6353  164.5437 C.3     1  UNL1        0.0297
     21 C         144.0192  142.7478  165.2058 C.3     1  UNL1        0.0024
     22 C         144.6968  144.0822  165.3057 C.3     1  UNL1        0.0001
     23 C         144.0331  145.3043  164.7435 C.3     1  UNL1        0.0000
     24 C         142.6918  145.1919  164.0814 C.3     1  UNL1        0.0001
     25 C         142.0142  143.8575  163.9816 C.3     1  UNL1        0.0024
     26 N         141.8260  140.9336  161.8778 N.am    1  UNL1       -0.2824
     27 C         142.2194  140.4369  163.2374 C.2     1  UNL1        0.2468
     28 O         142.7894  139.0654  163.0275 O.2     1  UNL1       -0.2727
     29 H         141.4239  141.8266  161.7772 H       1  UNL1        0.1549
     30 C         142.4837  138.3415  158.2585 C.ar    1  UNL1        0.0141
     31 C         143.5664  139.2699  158.7229 C.ar    1  UNL1        0.0024
     32 C         143.3472  140.1340  159.9294 C.ar    1  UNL1        0.0147
     33 C         142.0451  140.0696  160.6714 C.ar    1  UNL1        0.0503
     34 C         140.9624  139.1412  160.2070 C.ar    1  UNL1        0.0147
     35 C         141.1816  138.2772  159.0006 C.ar    1  UNL1        0.0024
     36 O         143.9743  137.5966  156.2653 O.co2   1  UNL1       -0.5446
     37 C         142.7028  137.4775  157.0521 C.2     1  UNL1        0.0729
     38 O         141.6504  136.4945  156.6325 O.co2   1  UNL1       -0.5446
@<TRIPOS>UNITY_ATOM_ATTR
36 1
charge -1
@<TRIPOS>BOND
     1    36    37   ar
     2    37    38   ar
     3    37    30    1
     4    30    31   ar
     5    31    32   ar
     6    32    33   ar
     7    33    26    1
     8    26    27   am
     9    27    28    2
    10    27     1    1
    11     1    20    1
    12    20    21    1
    13    21    22    1
    14    22    23    1
    15    23    24    1
    16    24    25    1
    17     1     2    1
    18     2     3   ar
    19     3    13    1
    20    13    14   ar
    21    14    15   ar
    22    15    16   ar
    23    16    17    1
    24    16    18   ar
    25    18    19   ar
    26     3     4   ar
    27     4     5   ar
    28     5     6   ar
    29     6     7   ar
    30     7     8    1
    31     7     9   ar
    32     9    10    1
    33     9    11   ar
    34    11    12   ar
    35    33    34   ar
    36    34    35   ar
    37    35    30   ar
    38    25    20    1
    39    12     2   ar
    40    19    13   ar
    41    12     5   ar
    42    26    29    1
@<TRIPOS>MOLECULE
*****
 38 42 0 0 0
SMALL
GASTEIGER

@<TRIPOS>ATOM
      1 C         141.4555  141.3378  162.3308 C.3     1  UNL1        0.1631
      2 N         140.5580  140.2289  162.7943 N.ar    1  UNL1       -0.3047
      3 C         140.0636  139.0866  161.9573 C.ar    1  UNL1        0.1441
      4 N         139.1974  138.2194  162.8220 N.ar    1  UNL1       -0.2267
      5 C         139.1564  138.8257  164.1933 C.ar    1  UNL1        0.1010
      6 C         138.4621  138.4074  165.4554 C.ar    1  UNL1        0.0526
      7 C         138.6087  139.2311  166.7004 C.ar    1  UNL1        0.1690
      8 F         137.9144  138.8128  167.9625 F       1  UNL1       -0.2017
      9 C         139.4496  140.4731  166.6833 C.ar    1  UNL1        0.1689
     10 F         139.5962  141.2967  167.9284 F       1  UNL1       -0.2017
     11 C         140.1440  140.8914  165.4213 C.ar    1  UNL1        0.0507
     12 C         139.9974  140.0677  164.1763 C.ar    1  UNL1        0.0816
     13 C         140.3798  138.8526  160.5098 C.ar    1  UNL1        0.0342
     14 C         139.3446  139.1329  159.4611 C.ar    1  UNL1        0.0039
     15 C         139.6609  138.8989  158.0136 C.ar    1  UNL1        0.0115
     16 C         141.0123  138.3845  157.6148 C.ar    1  UNL1        0.0577
     17 CL        141.3285  138.1505  156.1674 Cl      1  UNL1       -0.0822
     18 C         142.0475  138.1042  158.6635 C.ar    1  UNL1        0.0115
     19 C         141.7312  138.3382  160.1110 C.ar    1  UNL1        0.0039
     20 C         142.8538  141.4431  162.8631 C.3     1  UNL1        0.0297
     21 C         143.4400  142.7892  163.1706 C.3     1  UNL1        0.0024
     22 C         144.8384  142.8946  163.7029 C.3     1  UNL1        0.0001
     23 C         145.6507  141.6538  163.9277 C.3     1  UNL1        0.0000
     24 C         145.0647  140.3077  163.6202 C.3     1  UNL1        0.0001
     25 C         143.6663  140.2024  163.0879 C.3     1  UNL1        0.0024
     26 N         141.5200  142.3663  159.9458 N.am    1  UNL1       -0.2824
     27 C         140.9546  142.3416  161.3349 C.2     1  UNL1        0.2468
     28 O         139.9290  143.4351  161.3833 O.2     1  UNL1       -0.2727
     29 H         142.2198  141.7238  159.6876 H       1  UNL1        0.1549
     30 C         140.0172  145.3775  156.9584 C.ar    1  UNL1        0.0141
     31 C         141.0942  145.7585  157.9304 C.ar    1  UNL1        0.0024
     32 C         141.5951  144.7547  158.9263 C.ar    1  UNL1        0.0147
     33 C         141.0190  143.3700  158.9500 C.ar    1  UNL1        0.0503
     34 C         139.9420  142.9890  157.9779 C.ar    1  UNL1        0.0147
     35 C         139.4411  143.9927  156.9822 C.ar    1  UNL1        0.0024
     36 O         139.6073  146.0904  154.4939 O.co2   1  UNL1       -0.5446
     37 C         139.5162  146.3812  155.9626 C.2     1  UNL1        0.0729
     38 O         138.9242  147.6757  156.4356 O.co2   1  UNL1       -0.5446
@<TRIPOS>UNITY_ATOM_ATTR
36 1
charge -1
@<TRIPOS>BOND
     1    36    37   ar
     2    37    38   ar
     3    37    30    1
     4    30    31   ar
     5    31    32   ar
     6    32    33   ar
     7    33    26    1
     8    26    27   am
     9    27    28    2
    10    27     1    1
    11     1    20    1
    12    20    21    1
    13    21    22    1
    14    22    23    1
    15    23    24    1
    16    24    25    1
    17     1     2    1
    18     2     3   ar
    19     3    13    1
    20    13    14   ar
    21    14    15   ar
    22    15    16   ar
    23    16    17    1
    24    16    18   ar
    25    18    19   ar
    26     3     4   ar
    27     4     5   ar
    28     5     6   ar
    29     6     7   ar
    30     7     8    1
    31     7     9   ar
    32     9    10    1
    33     9    11   ar
    34    11    12   ar
    35    33    34   ar
    36    34    35   ar
    37    35    30   ar
    38    25    20    1
    39    12     2   ar
    40    19    13   ar
    41    12     5   ar
    42    26    29    1
@<TRIPOS>MOLECULE
*****
 38 42 0 0 0
SMALL
GASTEIGER

@<TRIPOS>ATOM
      1 C         140.4043  140.8774  159.7709 C.3     1  UNL1        0.1631
      2 N         141.1068  142.1888  159.5797 N.ar    1  UNL1       -0.3047
      3 C         142.3311  142.6486  160.3144 C.ar    1  UNL1        0.1441
      4 N         142.6892  144.0147  159.8090 N.ar    1  UNL1       -0.2267
      5 C         141.6863  144.3992  158.7620 C.ar    1  UNL1        0.1010
      6 C         141.5373  145.6311  157.9193 C.ar    1  UNL1        0.0526
      7 C         140.4103  145.7346  156.9349 C.ar    1  UNL1        0.1690
      8 F         140.2613  146.9665  156.0921 F       1  UNL1       -0.2017
      9 C         139.4323  144.6061  156.7932 C.ar    1  UNL1        0.1689
     10 F         138.3052  144.7096  155.8087 F       1  UNL1       -0.2017
     11 C         139.5813  143.3742  157.6358 C.ar    1  UNL1        0.0507
     12 C         140.7083  143.2708  158.6202 C.ar    1  UNL1        0.0816
     13 C         143.0678  141.8776  161.3693 C.ar    1  UNL1        0.0342
     14 C         143.7708  140.6016  161.0123 C.ar    1  UNL1        0.0039
     15 C         144.5075  139.8306  162.0672 C.ar    1  UNL1        0.0115
     16 C         144.5413  140.3356  163.4791 C.ar    1  UNL1        0.0577
     17 CL        145.2780  139.5646  164.5340 Cl      1  UNL1       -0.0822
     18 C         143.8383  141.6116  163.8362 C.ar    1  UNL1        0.0115
     19 C         143.1015  142.3826  162.7813 C.ar    1  UNL1        0.0039
     20 C         140.3721  139.8742  158.6563 C.3     1  UNL1        0.0297
     21 C         141.4964  138.8940  158.4967 C.3     1  UNL1        0.0024
     22 C         141.4643  137.8908  157.3820 C.3     1  UNL1        0.0001
     23 C         140.3079  137.8678  156.4268 C.3     1  UNL1        0.0000
     24 C         139.1837  138.8480  156.5864 C.3     1  UNL1        0.0001
     25 C         139.2158  139.8512  157.7011 C.3     1  UNL1        0.0024
     26 N         140.5059  139.9037  162.1776 N.am    1  UNL1       -0.2824
     27 C         139.7339  140.5690  161.0770 C.2     1  UNL1        0.2468
     28 O         138.3486  140.7794  161.6124 O.2     1  UNL1       -0.2727
     29 H         141.4526  139.6694  162.0428 H       1  UNL1        0.1549
     30 C         138.4945  138.9786  166.0954 C.ar    1  UNL1        0.0141
     31 C         138.6393  137.9075  165.0553 C.ar    1  UNL1        0.0024
     32 C         139.3097  138.2159  163.7493 C.ar    1  UNL1        0.0147
     33 C         139.8355  139.5954  163.4835 C.ar    1  UNL1        0.0503
     34 C         139.6907  140.6665  164.5236 C.ar    1  UNL1        0.0147
     35 C         139.0203  140.3581  165.8295 C.ar    1  UNL1        0.0024
     36 O         138.2539  139.3799  168.6510 O.co2   1  UNL1       -0.5446
     37 C         137.8241  138.6703  167.4013 C.2     1  UNL1        0.0729
     38 O         136.7238  137.6524  167.4574 O.co2   1  UNL1       -0.5446
@<TRIPOS>UNITY_ATOM_ATTR
36 1
charge -1
@<TRIPOS>BOND
     1    36    37   ar
     2    37    38   ar
     3    37    30    1
     4    30    31   ar
     5    31    32   ar
     6    32    33   ar
     7    33    26    1
     8    26    27   am
     9    27    28    2
    10    27     1    1
    11     1    20    1
    12    20    21    1
    13    21    22    1
    14    22    23    1
    15    23    24    1
    16    24    25    1
    17     1     2    1
    18     2     3   ar
    19     3    13    1
    20    13    14   ar
    21    14    15   ar
    22    15    16   ar
    23    16    17    1
    24    16    18   ar
    25    18    19   ar
    26     3     4   ar
    27     4     5   ar
    28     5     6   ar
    29     6     7   ar
    30     7     8    1
    31     7     9   ar
    32     9    10    1
    33     9    11   ar
    34    11    12   ar
    35    33    34   ar
    36    34    35   ar
    37    35    30   ar
    38    25    20    1
    39    12     2   ar
    40    19    13   ar
    41    12     5   ar
    42    26    29    1
@<TRIPOS>MOLECULE
*****
 38 42 0 0 0
SMALL
GASTEIGER

@<TRIPOS>ATOM
      1 C         141.8511  139.8360  163.0972 C.3     1  UNL1        0.1631
      2 N         140.7037  140.0192  164.0459 N.ar    1  UNL1       -0.3047
      3 C         139.2837  140.3166  163.6650 C.ar    1  UNL1        0.1441
      4 N         138.4773  140.4184  164.9257 N.ar    1  UNL1       -0.2267
      5 C         139.3989  140.1838  166.0857 C.ar    1  UNL1        0.1010
      6 C         139.1629  140.1630  167.5669 C.ar    1  UNL1        0.0526
      7 C         140.3030  139.8955  168.5042 C.ar    1  UNL1        0.1690
      8 F         140.0670  139.8747  169.9855 F       1  UNL1       -0.2017
      9 C         141.6790  139.6487  167.9604 C.ar    1  UNL1        0.1689
     10 F         142.8190  139.3812  168.8979 F       1  UNL1       -0.2017
     11 C         141.9150  139.6695  166.4793 C.ar    1  UNL1        0.0507
     12 C         140.7749  139.9371  165.5419 C.ar    1  UNL1        0.0816
     13 C         138.7617  140.4831  162.2686 C.ar    1  UNL1        0.0342
     14 C         137.8428  139.4520  161.6835 C.ar    1  UNL1        0.0039
     15 C         137.3208  139.6185  160.2872 C.ar    1  UNL1        0.0115
     16 C         137.7178  140.8161  159.4759 C.ar    1  UNL1        0.0577
     17 CL        137.1958  140.9825  158.0796 Cl      1  UNL1       -0.0822
     18 C         138.6367  141.8472  160.0610 C.ar    1  UNL1        0.0115
     19 C         139.1586  141.6807  161.4574 C.ar    1  UNL1        0.0039
     20 C         143.1614  140.5150  163.3650 C.3     1  UNL1        0.0297
     21 C         144.3347  139.7162  163.8503 C.3     1  UNL1        0.0024
     22 C         145.6451  140.3952  164.1181 C.3     1  UNL1        0.0001
     23 C         145.7823  141.8731  163.9006 C.3     1  UNL1        0.0000
     24 C         144.6091  142.6718  163.4152 C.3     1  UNL1        0.0001
     25 C         143.2987  141.9928  163.1474 C.3     1  UNL1        0.0024
     26 N         141.8448  139.5690  160.5128 N.am    1  UNL1       -0.2824
     27 C         141.6881  138.9736  161.8807 C.2     1  UNL1        0.2468
     28 O         141.3770  137.5219  161.6665 O.2     1  UNL1       -0.2727
     29 H         142.0547  140.5257  160.4135 H       1  UNL1        0.1549
     30 C         141.3556  136.9819  156.8635 C.ar    1  UNL1        0.0141
     31 C         140.1956  137.7829  157.3760 C.ar    1  UNL1        0.0024
     32 C         140.3587  138.6453  158.5925 C.ar    1  UNL1        0.0147
     33 C         141.6818  138.7066  159.2964 C.ar    1  UNL1        0.0503
     34 C         142.8419  137.9056  158.7839 C.ar    1  UNL1        0.0147
     35 C         142.6788  137.0433  157.5675 C.ar    1  UNL1        0.0024
     36 O         142.2168  135.0710  155.3283 O.co2   1  UNL1       -0.5446
     37 C         141.1926  136.1195  155.6471 C.2     1  UNL1        0.0729
     38 O         140.0054  136.3057  154.7494 O.co2   1  UNL1       -0.5446
@<TRIPOS>UNITY_ATOM_ATTR
36 1
charge -1
@<TRIPOS>BOND
     1    36    37   ar
     2    37    38   ar
     3    37    30    1
     4    30    31   ar
     5    31    32   ar
     6    32    33   ar
     7    33    26    1
     8    26    27   am
     9    27    28    2
    10    27     1    1
    11     1    20    1
    12    20    21    1
    13    21    22    1
    14    22    23    1
    15    23    24    1
    16    24    25    1
    17     1     2    1
    18     2     3   ar
    19     3    13    1
    20    13    14   ar
    21    14    15   ar
    22    15    16   ar
    23    16    17    1
    24    16    18   ar
    25    18    19   ar
    26     3     4   ar
    27     4     5   ar
    28     5     6   ar
    29     6     7   ar
    30     7     8    1
    31     7     9   ar
    32     9    10    1
    33     9    11   ar
    34    11    12   ar
    35    33    34   ar
    36    34    35   ar
    37    35    30   ar
    38    25    20    1
    39    12     2   ar
    40    19    13   ar
    41    12     5   ar
    42    26    29    1
@<TRIPOS>MOLECULE
*****
 38 42 0 0 0
SMALL
GASTEIGER

@<TRIPOS>ATOM
      1 C         140.4824  141.0416  159.7698 C.3     1  UNL1        0.1631
      2 N         141.7616  141.8249  159.7772 N.ar    1  UNL1       -0.3047
      3 C         142.1091  142.9369  160.7221 C.ar    1  UNL1        0.1441
      4 N         143.4802  143.4329  160.3698 N.ar    1  UNL1       -0.2267
      5 C         143.9800  142.6276  159.2072 C.ar    1  UNL1        0.1010
      6 C         145.2651  142.6708  158.4348 C.ar    1  UNL1        0.0526
      7 C         145.4880  141.7202  157.2962 C.ar    1  UNL1        0.1690
      8 F         146.7731  141.7633  156.5237 F       1  UNL1       -0.2017
      9 C         144.4258  140.7263  156.9299 C.ar    1  UNL1        0.1689
     10 F         144.6488  139.7757  155.7912 F       1  UNL1       -0.2017
     11 C         143.1408  140.6831  157.7023 C.ar    1  UNL1        0.0507
     12 C         142.9179  141.6337  158.8410 C.ar    1  UNL1        0.0816
     13 C         141.2384  143.4608  161.8255 C.ar    1  UNL1        0.0342
     14 C         141.6972  143.3690  163.2506 C.ar    1  UNL1        0.0039
     15 C         140.8265  143.8929  164.3540 C.ar    1  UNL1        0.0115
     16 C         139.4971  144.5086  164.0322 C.ar    1  UNL1        0.0577
     17 CL        138.6264  145.0325  165.1356 Cl      1  UNL1       -0.0822
     18 C         139.0384  144.6004  162.6071 C.ar    1  UNL1        0.0115
     19 C         139.9090  144.0765  161.5037 C.ar    1  UNL1        0.0039
     20 C         139.8828  140.5968  158.4689 C.3     1  UNL1        0.0297
     21 C         139.2509  141.6016  157.5517 C.3     1  UNL1        0.0024
     22 C         138.6513  141.1568  156.2508 C.3     1  UNL1        0.0001
     23 C         138.6835  139.7070  155.8669 C.3     1  UNL1        0.0000
     24 C         139.3153  138.7022  156.7841 C.3     1  UNL1        0.0001
     25 C         139.9150  139.1471  158.0850 C.3     1  UNL1        0.0024
     26 N         140.5653  140.0074  162.1518 N.am    1  UNL1       -0.2824
     27 C         139.8027  140.7032  161.0636 C.2     1  UNL1        0.2468
     28 O         138.4149  140.9055  161.5956 O.2     1  UNL1       -0.2727
     29 H         141.5119  139.7728  162.0170 H       1  UNL1        0.1549
     30 C         138.5261  138.9923  166.0328 C.ar    1  UNL1        0.0141
     31 C         139.0184  140.3877  165.7867 C.ar    1  UNL1        0.0024
     32 C         139.6981  140.7260  164.4930 C.ar    1  UNL1        0.0147
     33 C         139.8856  139.6690  163.4454 C.ar    1  UNL1        0.0503
     34 C         139.3933  138.2736  163.6914 C.ar    1  UNL1        0.0147
     35 C         138.7136  137.9353  164.9851 C.ar    1  UNL1        0.0024
     36 O         138.3149  139.2805  168.6061 O.co2   1  UNL1       -0.5446
     37 C         137.8464  138.6539  167.3264 C.2     1  UNL1        0.0729
     38 O         136.6981  137.6889  167.3401 O.co2   1  UNL1       -0.5446
@<TRIPOS>UNITY_ATOM_ATTR
36 1
charge -1
@<TRIPOS>BOND
     1    36    37   ar
     2    37    38   ar
     3    37    30    1
     4    30    31   ar
     5    31    32   ar
     6    32    33   ar
     7    33    26    1
     8    26    27   am
     9    27    28    2
    10    27     1    1
    11     1    20    1
    12    20    21    1
    13    21    22    1
    14    22    23    1
    15    23    24    1
    16    24    25    1
    17     1     2    1
    18     2     3   ar
    19     3    13    1
    20    13    14   ar
    21    14    15   ar
    22    15    16   ar
    23    16    17    1
    24    16    18   ar
    25    18    19   ar
    26     3     4   ar
    27     4     5   ar
    28     5     6   ar
    29     6     7   ar
    30     7     8    1
    31     7     9   ar
    32     9    10    1
    33     9    11   ar
    34    11    12   ar
    35    33    34   ar
    36    34    35   ar
    37    35    30   ar
    38    25    20    1
    39    12     2   ar
    40    19    13   ar
    41    12     5   ar
    42    26    29    1
@<TRIPOS>MOLECULE
*****
 38 42 0 0 0
SMALL
GASTEIGER

@<TRIPOS>ATOM
      1 C         141.7870  141.0440  162.8326 C.3     1  UNL1        0.1631
      2 N         141.1683  142.3160  163.3317 N.ar    1  UNL1       -0.3047
      3 C         140.8994  142.6620  164.7663 C.ar    1  UNL1        0.1441
      4 N         140.2747  144.0252  164.8050 N.ar    1  UNL1       -0.2267
      5 C         140.1575  144.5217  163.3945 C.ar    1  UNL1        0.1010
      6 C         139.6193  145.7992  162.8215 C.ar    1  UNL1        0.0526
      7 C         139.6334  146.0204  161.3380 C.ar    1  UNL1        0.1690
      8 F         139.0952  147.2979  160.7650 F       1  UNL1       -0.2017
      9 C         140.1857  144.9640  160.4274 C.ar    1  UNL1        0.1689
     10 F         140.1997  145.1853  158.9439 F       1  UNL1       -0.2017
     11 C         140.7239  143.6866  161.0004 C.ar    1  UNL1        0.0507
     12 C         140.7098  143.4654  162.4839 C.ar    1  UNL1        0.0816
     13 C         141.2020  141.7967  165.9536 C.ar    1  UNL1        0.0342
     14 C         142.5798  141.7919  166.5464 C.ar    1  UNL1        0.0039
     15 C         142.8824  140.9266  167.7337 C.ar    1  UNL1        0.0115
     16 C         141.8072  140.0661  168.3282 C.ar    1  UNL1        0.0577
     17 CL        142.1098  139.2009  169.5155 Cl      1  UNL1       -0.0822
     18 C         140.4294  140.0709  167.7354 C.ar    1  UNL1        0.0115
     19 C         140.1268  140.9362  166.5481 C.ar    1  UNL1        0.0039
     20 C         141.3842  139.7289  163.4307 C.3     1  UNL1        0.0297
     21 C         142.3776  138.9277  164.2191 C.3     1  UNL1        0.0024
     22 C         141.9748  137.6125  164.8174 C.3     1  UNL1        0.0001
     23 C         140.5785  137.0983  164.6272 C.3     1  UNL1        0.0000
     24 C         139.5851  137.8994  163.8389 C.3     1  UNL1        0.0001
     25 C         139.9879  139.2146  163.2406 C.3     1  UNL1        0.0024
     26 N         142.3742  141.2859  160.3132 N.am    1  UNL1       -0.2824
     27 C         142.8088  141.0872  161.7351 C.2     1  UNL1        0.2468
     28 O         144.3037  140.9701  161.6979 O.2     1  UNL1       -0.2727
     29 H         141.4185  141.3880  160.1002 H       1  UNL1        0.1549
     30 C         145.4394  141.4153  157.0211 C.ar    1  UNL1        0.0141
     31 C         144.5649  140.2077  157.1846 C.ar    1  UNL1        0.0024
     32 C         143.5431  140.1646  158.2820 C.ar    1  UNL1        0.0147
     33 C         143.3959  141.3291  159.2159 C.ar    1  UNL1        0.0503
     34 C         144.2704  142.5368  159.0524 C.ar    1  UNL1        0.0147
     35 C         145.2921  142.5799  157.9550 C.ar    1  UNL1        0.0024
     36 O         146.1749  140.8013  154.6061 O.co2   1  UNL1       -0.5446
     37 C         146.4611  141.4585  155.9237 C.2     1  UNL1        0.0729
     38 O         147.7691  142.1590  156.1441 O.co2   1  UNL1       -0.5446
@<TRIPOS>UNITY_ATOM_ATTR
36 1
charge -1
@<TRIPOS>BOND
     1    36    37   ar
     2    37    38   ar
     3    37    30    1
     4    30    31   ar
     5    31    32   ar
     6    32    33   ar
     7    33    26    1
     8    26    27   am
     9    27    28    2
    10    27     1    1
    11     1    20    1
    12    20    21    1
    13    21    22    1
    14    22    23    1
    15    23    24    1
    16    24    25    1
    17     1     2    1
    18     2     3   ar
    19     3    13    1
    20    13    14   ar
    21    14    15   ar
    22    15    16   ar
    23    16    17    1
    24    16    18   ar
    25    18    19   ar
    26     3     4   ar
    27     4     5   ar
    28     5     6   ar
    29     6     7   ar
    30     7     8    1
    31     7     9   ar
    32     9    10    1
    33     9    11   ar
    34    11    12   ar
    35    33    34   ar
    36    34    35   ar
    37    35    30   ar
    38    25    20    1
    39    12     2   ar
    40    19    13   ar
    41    12     5   ar
    42    26    29    1
