@<TRIPOS>MOLECULE
*****
 23 25 0 0 0
SMALL
GASTEIGER

@<TRIPOS>ATOM
      1 C         140.4809  142.2212  166.7057 C.3     1  UNL1        0.1909
      2 C         140.5294  143.2023  165.5720 C.3     1  UNL1        0.0602
      3 C         141.7379  143.2650  164.6856 C.3     1  UNL1        0.0068
      4 C         141.7863  144.2460  163.5520 C.3     1  UNL1        0.0173
      5 C         140.6263  145.1643  163.3047 C.3     1  UNL1        0.0686
      6 N         139.4179  145.1016  164.1911 N.3     1  UNL1       -0.2974
      7 C         139.3694  144.1206  165.3247 C.3     1  UNL1        0.0725
      8 H         138.6212  144.8950  163.5886 H       1  UNL1        0.1232
      9 C         141.2394  142.4978  167.9698 C.ar    1  UNL1        0.0364
     10 C         142.6718  142.0701  168.0939 C.ar    1  UNL1        0.0023
     11 C         143.4303  142.3468  169.3581 C.ar    1  UNL1        0.0205
     12 C         142.7565  143.0511  170.4982 C.ar    1  UNL1        0.0989
     13 N         141.3241  143.4788  170.3741 N.ar    1  UNL1       -0.2425
     14 C         140.5656  143.2022  169.1100 C.ar    1  UNL1        0.0980
     15 O         139.6739  140.9636  166.5752 O.3     1  UNL1       -0.4738
     16 CL        139.0405  137.7852  162.5135 Cl      1  UNL1       -0.0813
     17 C         139.8542  138.2501  163.6848 C.ar    1  UNL1        0.0712
     18 C         141.1650  137.5907  163.9964 C.ar    1  UNL1        0.0125
     19 C         141.9787  138.0556  165.1676 C.ar    1  UNL1        0.0040
     20 C         141.4817  139.1799  166.0272 C.ar    1  UNL1        0.0378
     21 C         140.1709  139.8393  165.7155 C.ar    1  UNL1        0.1501
     22 C         139.3572  139.3744  164.5444 C.ar    1  UNL1        0.1020
     23 CL        138.0464  140.0338  164.2328 Cl      1  UNL1       -0.0782
@<TRIPOS>BOND
     1    16    17    1
     2    17    18   ar
     3    18    19   ar
     4    19    20   ar
     5    20    21   ar
     6    21    15    1
     7    15     1    1
     8     1     9    1
     9     9    10   ar
    10    10    11   ar
    11    11    12   ar
    12    12    13   ar
    13    13    14   ar
    14     2     1    1
    15     2     3    1
    16     3     4    1
    17     4     5    1
    18     5     6    1
    19     6     7    1
    20    21    22   ar
    21    22    23    1
    22    22    17   ar
    23    14     9   ar
    24     7     2    1
    25     6     8    1
@<TRIPOS>MOLECULE
*****
 23 25 0 0 0
SMALL
GASTEIGER

@<TRIPOS>ATOM
      1 C         140.6460  142.0684  167.0212 C.3     1  UNL1        0.1909
      2 C         141.4480  142.4380  168.2339 C.3     1  UNL1        0.0602
      3 C         142.8746  141.9906  168.3545 C.3     1  UNL1        0.0068
      4 C         143.6764  142.3602  169.5671 C.3     1  UNL1        0.0173
      5 C         143.0516  143.1771  170.6590 C.3     1  UNL1        0.0686
      6 N         141.6250  143.6245  170.5384 N.3     1  UNL1       -0.2974
      7 C         140.8232  143.2549  169.3258 C.3     1  UNL1        0.0725
      8 H         141.6306  144.6432  170.5884 H       1  UNL1        0.1232
      9 C         140.5739  143.0085  165.8547 C.ar    1  UNL1        0.0364
     10 C         139.3432  143.8372  165.6342 C.ar    1  UNL1        0.0023
     11 C         139.2711  144.7774  164.4677 C.ar    1  UNL1        0.0205
     12 C         140.4297  144.8888  163.5215 C.ar    1  UNL1        0.0989
     13 N         141.6604  144.0601  163.7419 N.ar    1  UNL1       -0.2425
     14 C         141.7326  143.1200  164.9085 C.ar    1  UNL1        0.0980
     15 O         139.9163  140.7587  166.9752 O.3     1  UNL1       -0.4738
     16 CL        138.9153  137.5575  163.0065 Cl      1  UNL1       -0.0813
     17 C         139.8621  138.0837  164.0442 C.ar    1  UNL1        0.0712
     18 C         141.2554  137.5354  164.1350 C.ar    1  UNL1        0.0125
     19 C         142.2023  138.0615  165.1725 C.ar    1  UNL1        0.0040
     20 C         141.7559  139.1360  166.1193 C.ar    1  UNL1        0.0378
     21 C         140.3626  139.6842  166.0284 C.ar    1  UNL1        0.1501
     22 C         139.4158  139.1581  164.9909 C.ar    1  UNL1        0.1020
     23 CL        138.0225  139.7064  164.9001 Cl      1  UNL1       -0.0782
@<TRIPOS>BOND
     1    16    17    1
     2    17    18   ar
     3    18    19   ar
     4    19    20   ar
     5    20    21   ar
     6    21    15    1
     7    15     1    1
     8     1     9    1
     9     9    10   ar
    10    10    11   ar
    11    11    12   ar
    12    12    13   ar
    13    13    14   ar
    14     2     1    1
    15     2     3    1
    16     3     4    1
    17     4     5    1
    18     5     6    1
    19     6     7    1
    20    21    22   ar
    21    22    23    1
    22    22    17   ar
    23    14     9   ar
    24     7     2    1
    25     6     8    1
@<TRIPOS>MOLECULE
*****
 23 25 0 0 0
SMALL
GASTEIGER

@<TRIPOS>ATOM
      1 C         140.1544  140.2273  167.0226 C.3     1  UNL1        0.1909
      2 C         141.4492  140.0863  166.2786 C.3     1  UNL1        0.0602
      3 C         142.3961  138.9757  166.6249 C.3     1  UNL1        0.0068
      4 C         143.6908  138.8346  165.8809 C.3     1  UNL1        0.0173
      5 C         144.0388  139.8042  164.7906 C.3     1  UNL1        0.0686
      6 N         143.0919  140.9148  164.4442 N.3     1  UNL1       -0.2974
      7 C         141.7972  141.0559  165.1882 C.3     1  UNL1        0.0725
      8 H         142.8545  140.8027  163.4586 H       1  UNL1        0.1232
      9 C         140.0715  141.1271  168.2199 C.ar    1  UNL1        0.0364
     10 C         140.5581  142.5430  168.1292 C.ar    1  UNL1        0.0023
     11 C         140.4753  143.4428  169.3265 C.ar    1  UNL1        0.0205
     12 C         139.9059  142.9266  170.6146 C.ar    1  UNL1        0.0989
     13 N         139.4193  141.5106  170.7054 N.ar    1  UNL1       -0.2425
     14 C         139.5021  140.6108  169.5081 C.ar    1  UNL1        0.0980
     15 O         138.9424  139.4687  166.5693 O.3     1  UNL1       -0.4738
     16 CL        137.5989  141.1143  161.8272 Cl      1  UNL1       -0.0813
     17 C         138.0606  140.0161  162.7388 C.ar    1  UNL1        0.0712
     18 C         138.3124  138.6427  162.1909 C.ar    1  UNL1        0.0125
     19 C         138.7741  137.5446  163.1024 C.ar    1  UNL1        0.0040
     20 C         138.9841  137.8199  164.5618 C.ar    1  UNL1        0.0378
     21 C         138.7324  139.1934  165.1098 C.ar    1  UNL1        0.1501
     22 C         138.2706  140.2915  164.1983 C.ar    1  UNL1        0.1020
     23 CL        138.0189  141.6650  164.7462 Cl      1  UNL1       -0.0782
@<TRIPOS>BOND
     1    16    17    1
     2    17    18   ar
     3    18    19   ar
     4    19    20   ar
     5    20    21   ar
     6    21    15    1
     7    15     1    1
     8     1     9    1
     9     9    10   ar
    10    10    11   ar
    11    11    12   ar
    12    12    13   ar
    13    13    14   ar
    14     2     1    1
    15     2     3    1
    16     3     4    1
    17     4     5    1
    18     5     6    1
    19     6     7    1
    20    21    22   ar
    21    22    23    1
    22    22    17   ar
    23    14     9   ar
    24     7     2    1
    25     6     8    1
@<TRIPOS>MOLECULE
*****
 23 25 0 0 0
SMALL
GASTEIGER

@<TRIPOS>ATOM
      1 C         140.1492  140.3311  166.8396 C.3     1  UNL1        0.1909
      2 C         140.0734  141.1621  168.0861 C.3     1  UNL1        0.0602
      3 C         140.5307  142.5905  168.0641 C.3     1  UNL1        0.0068
      4 C         140.4549  143.4215  169.3106 C.3     1  UNL1        0.0173
      5 C         139.9219  142.8241  170.5791 C.3     1  UNL1        0.0686
      6 N         139.4647  141.3957  170.6011 N.3     1  UNL1       -0.2974
      7 C         139.5404  140.5647  169.3546 C.3     1  UNL1        0.0725
      8 H         138.4866  141.4040  170.8904 H       1  UNL1        0.1232
      9 C         141.4676  140.1248  166.1547 C.ar    1  UNL1        0.0364
     10 C         142.3405  138.9677  166.5409 C.ar    1  UNL1        0.0023
     11 C         143.6590  138.7615  165.8560 C.ar    1  UNL1        0.0205
     12 C         144.1046  139.7123  164.7849 C.ar    1  UNL1        0.0989
     13 N         143.2317  140.8695  164.3987 N.ar    1  UNL1       -0.2425
     14 C         141.9132  141.0757  165.0836 C.ar    1  UNL1        0.0980
     15 O         138.9065  139.7063  166.2781 O.3     1  UNL1       -0.4738
     16 CL        138.2363  138.2258  161.3426 Cl      1  UNL1       -0.0813
     17 C         138.1431  139.2785  162.4072 C.ar    1  UNL1        0.0712
     18 C         137.6216  140.6435  162.0685 C.ar    1  UNL1        0.0125
     19 C         137.5284  141.6962  163.1330 C.ar    1  UNL1        0.0040
     20 C         137.9567  141.3838  164.5362 C.ar    1  UNL1        0.0378
     21 C         138.4782  140.0187  164.8749 C.ar    1  UNL1        0.1501
     22 C         138.5714  138.9661  163.8104 C.ar    1  UNL1        0.1020
     23 CL        139.0929  137.6010  164.1490 Cl      1  UNL1       -0.0782
@<TRIPOS>BOND
     1    16    17    1
     2    17    18   ar
     3    18    19   ar
     4    19    20   ar
     5    20    21   ar
     6    21    15    1
     7    15     1    1
     8     1     9    1
     9     9    10   ar
    10    10    11   ar
    11    11    12   ar
    12    12    13   ar
    13    13    14   ar
    14     2     1    1
    15     2     3    1
    16     3     4    1
    17     4     5    1
    18     5     6    1
    19     6     7    1
    20    21    22   ar
    21    22    23    1
    22    22    17   ar
    23    14     9   ar
    24     7     2    1
    25     6     8    1
@<TRIPOS>MOLECULE
*****
 23 25 0 0 0
SMALL
GASTEIGER

@<TRIPOS>ATOM
      1 C         140.4294  142.1112  166.8991 C.3     1  UNL1        0.1909
      2 C         141.2479  142.4417  168.1119 C.3     1  UNL1        0.0602
      3 C         142.6723  141.9808  168.2039 C.3     1  UNL1        0.0068
      4 C         143.4907  142.3114  169.4167 C.3     1  UNL1        0.0173
      5 C         142.8846  143.1028  170.5376 C.3     1  UNL1        0.0686
      6 N         141.4602  143.5637  170.4456 N.3     1  UNL1       -0.2974
      7 C         140.6418  143.2332  169.2328 C.3     1  UNL1        0.0725
      8 H         141.4741  144.5807  170.5232 H       1  UNL1        0.1232
      9 C         140.4200  143.0433  165.7238 C.ar    1  UNL1        0.0364
     10 C         139.2389  143.9362  165.4843 C.ar    1  UNL1        0.0023
     11 C         139.2294  144.8683  164.3091 C.ar    1  UNL1        0.0205
     12 C         140.4012  144.9075  163.3734 C.ar    1  UNL1        0.0989
     13 N         141.5824  144.0145  163.6130 N.ar    1  UNL1       -0.2425
     14 C         141.5919  143.0824  164.7882 C.ar    1  UNL1        0.0980
     15 O         139.6205  140.8486  166.8614 O.3     1  UNL1       -0.4738
     16 CL        141.4411  137.3742  163.4535 Cl      1  UNL1       -0.0813
     17 C         140.3840  138.3528  163.8719 C.ar    1  UNL1        0.0712
     18 C         139.1801  138.5726  163.0045 C.ar    1  UNL1        0.0125
     19 C         138.1230  139.5511  163.4228 C.ar    1  UNL1        0.0040
     20 C         138.2698  140.3098  164.7084 C.ar    1  UNL1        0.0378
     21 C         139.4737  140.0899  165.5758 C.ar    1  UNL1        0.1501
     22 C         140.5308  139.1114  165.1575 C.ar    1  UNL1        0.1020
     23 CL        141.7347  138.8916  166.0248 Cl      1  UNL1       -0.0782
@<TRIPOS>BOND
     1    16    17    1
     2    17    18   ar
     3    18    19   ar
     4    19    20   ar
     5    20    21   ar
     6    21    15    1
     7    15     1    1
     8     1     9    1
     9     9    10   ar
    10    10    11   ar
    11    11    12   ar
    12    12    13   ar
    13    13    14   ar
    14     2     1    1
    15     2     3    1
    16     3     4    1
    17     4     5    1
    18     5     6    1
    19     6     7    1
    20    21    22   ar
    21    22    23    1
    22    22    17   ar
    23    14     9   ar
    24     7     2    1
    25     6     8    1
@<TRIPOS>MOLECULE
*****
 23 25 0 0 0
SMALL
GASTEIGER

@<TRIPOS>ATOM
      1 C         141.1912  141.0220  166.9592 C.3     1  UNL1        0.1909
      2 C         141.6816  141.6474  168.2314 C.3     1  UNL1        0.0602
      3 C         141.0033  142.8691  168.7766 C.3     1  UNL1        0.0068
      4 C         141.4938  143.4944  170.0487 C.3     1  UNL1        0.0173
      5 C         142.6626  142.8980  170.7756 C.3     1  UNL1        0.0686
      6 N         143.3409  141.6763  170.2304 N.3     1  UNL1       -0.2974
      7 C         142.8504  141.0510  168.9582 C.3     1  UNL1        0.0725
      8 H         143.2812  140.9591  170.9531 H       1  UNL1        0.1232
      9 C         139.9810  140.1359  166.9770 C.ar    1  UNL1        0.0364
     10 C         139.5206  139.4697  165.7144 C.ar    1  UNL1        0.0023
     11 C         138.3104  138.5835  165.7323 C.ar    1  UNL1        0.0205
     12 C         137.5607  138.3636  167.0127 C.ar    1  UNL1        0.0989
     13 N         138.0212  139.0298  168.2754 N.ar    1  UNL1       -0.2425
     14 C         139.2313  139.9159  168.2575 C.ar    1  UNL1        0.0980
     15 O         141.9108  141.2828  165.6692 O.3     1  UNL1       -0.4738
     16 CL        144.0754  145.2721  163.1393 Cl      1  UNL1       -0.0813
     17 C         142.8654  144.6115  163.7306 C.ar    1  UNL1        0.0712
     18 C         141.5277  145.2852  163.6483 C.ar    1  UNL1        0.0125
     19 C         140.3177  144.6247  164.2396 C.ar    1  UNL1        0.0040
     20 C         140.4454  143.2906  164.9132 C.ar    1  UNL1        0.0378
     21 C         141.7831  142.6170  164.9955 C.ar    1  UNL1        0.1501
     22 C         142.9931  143.2774  164.4042 C.ar    1  UNL1        0.1020
     23 CL        144.3308  142.6038  164.4866 Cl      1  UNL1       -0.0782
@<TRIPOS>BOND
     1    16    17    1
     2    17    18   ar
     3    18    19   ar
     4    19    20   ar
     5    20    21   ar
     6    21    15    1
     7    15     1    1
     8     1     9    1
     9     9    10   ar
    10    10    11   ar
    11    11    12   ar
    12    12    13   ar
    13    13    14   ar
    14     2     1    1
    15     2     3    1
    16     3     4    1
    17     4     5    1
    18     5     6    1
    19     6     7    1
    20    21    22   ar
    21    22    23    1
    22    22    17   ar
    23    14     9   ar
    24     7     2    1
    25     6     8    1
@<TRIPOS>MOLECULE
*****
 23 25 0 0 0
SMALL
GASTEIGER

@<TRIPOS>ATOM
      1 C         141.8819  141.9891  166.0691 C.3     1  UNL1        0.1909
      2 C         143.1263  141.7343  165.2712 C.3     1  UNL1        0.0602
      3 C         143.6202  140.3310  165.0797 C.3     1  UNL1        0.0068
      4 C         144.8646  140.0763  164.2819 C.3     1  UNL1        0.0173
      5 C         145.6150  141.2248  163.6754 C.3     1  UNL1        0.0686
      6 N         145.1210  142.6281  163.8668 N.3     1  UNL1       -0.2974
      7 C         143.8767  142.8829  164.6647 C.3     1  UNL1        0.0725
      8 H         144.9579  143.0124  162.9362 H       1  UNL1        0.1232
      9 C         141.9844  142.3879  167.5115 C.ar    1  UNL1        0.0364
     10 C         140.7668  142.8655  168.2459 C.ar    1  UNL1        0.0023
     11 C         140.8693  143.2642  169.6883 C.ar    1  UNL1        0.0205
     12 C         142.1893  143.1854  170.3963 C.ar    1  UNL1        0.0989
     13 N         143.4070  142.7078  169.6618 N.ar    1  UNL1       -0.2425
     14 C         143.3045  142.3090  168.2195 C.ar    1  UNL1        0.0980
     15 O         140.5351  141.8452  165.4246 O.3     1  UNL1       -0.4738
     16 CL        139.3158  137.4838  162.8767 Cl      1  UNL1       -0.0813
     17 C         139.2496  138.3258  164.1164 C.ar    1  UNL1        0.0712
     18 C         138.5076  137.8292  165.3217 C.ar    1  UNL1        0.0125
     19 C         138.4415  138.6711  166.5613 C.ar    1  UNL1        0.0040
     20 C         139.1173  140.0098  166.5956 C.ar    1  UNL1        0.0378
     21 C         139.8593  140.5065  165.3903 C.ar    1  UNL1        0.1501
     22 C         139.9254  139.6645  164.1507 C.ar    1  UNL1        0.1020
     23 CL        140.6674  140.1612  162.9454 Cl      1  UNL1       -0.0782
@<TRIPOS>BOND
     1    16    17    1
     2    17    18   ar
     3    18    19   ar
     4    19    20   ar
     5    20    21   ar
     6    21    15    1
     7    15     1    1
     8     1     9    1
     9     9    10   ar
    10    10    11   ar
    11    11    12   ar
    12    12    13   ar
    13    13    14   ar
    14     2     1    1
    15     2     3    1
    16     3     4    1
    17     4     5    1
    18     5     6    1
    19     6     7    1
    20    21    22   ar
    21    22    23    1
    22    22    17   ar
    23    14     9   ar
    24     7     2    1
    25     6     8    1
@<TRIPOS>MOLECULE
*****
 23 25 0 0 0
SMALL
GASTEIGER

@<TRIPOS>ATOM
      1 C         142.2716  141.2348  166.2320 C.3     1  UNL1        0.1909
      2 C         143.3867  141.4209  165.2460 C.3     1  UNL1        0.0602
      3 C         144.1099  140.2267  164.6975 C.3     1  UNL1        0.0068
      4 C         145.2248  140.4128  163.7116 C.3     1  UNL1        0.0173
      5 C         145.6167  141.7931  163.2741 C.3     1  UNL1        0.0686
      6 N         144.8935  142.9872  163.8227 N.3     1  UNL1       -0.2974
      7 C         143.7785  142.8011  164.8086 C.3     1  UNL1        0.0725
      8 H         144.5004  143.4858  163.0243 H       1  UNL1        0.1232
      9 C         142.5830  140.9640  167.6741 C.ar    1  UNL1        0.0364
     10 C         142.8920  142.1020  168.6012 C.ar    1  UNL1        0.0023
     11 C         143.2034  141.8312  170.0433 C.ar    1  UNL1        0.0205
     12 C         143.2059  140.4224  170.5583 C.ar    1  UNL1        0.0989
     13 N         142.8970  139.2844  169.6312 N.ar    1  UNL1       -0.2425
     14 C         142.5855  139.5551  168.1891 C.ar    1  UNL1        0.0980
     15 O         140.8452  141.3195  165.7758 O.3     1  UNL1       -0.4738
     16 CL        137.5795  137.3947  166.7411 Cl      1  UNL1       -0.0813
     17 C         138.4963  138.1208  165.8017 C.ar    1  UNL1        0.0712
     18 C         138.6970  137.6104  164.4056 C.ar    1  UNL1        0.0125
     19 C         139.6138  138.3364  163.4662 C.ar    1  UNL1        0.0040
     20 C         140.3298  139.5727  163.9229 C.ar    1  UNL1        0.0378
     21 C         140.1291  140.0831  165.3191 C.ar    1  UNL1        0.1501
     22 C         139.2124  139.3571  166.2585 C.ar    1  UNL1        0.1020
     23 CL        139.0116  139.8675  167.6546 Cl      1  UNL1       -0.0782
@<TRIPOS>BOND
     1    16    17    1
     2    17    18   ar
     3    18    19   ar
     4    19    20   ar
     5    20    21   ar
     6    21    15    1
     7    15     1    1
     8     1     9    1
     9     9    10   ar
    10    10    11   ar
    11    11    12   ar
    12    12    13   ar
    13    13    14   ar
    14     2     1    1
    15     2     3    1
    16     3     4    1
    17     4     5    1
    18     5     6    1
    19     6     7    1
    20    21    22   ar
    21    22    23    1
    22    22    17   ar
    23    14     9   ar
    24     7     2    1
    25     6     8    1
@<TRIPOS>MOLECULE
*****
 23 25 0 0 0
SMALL
GASTEIGER

@<TRIPOS>ATOM
      1 C         141.9211  141.9466  166.2301 C.3     1  UNL1        0.1909
      2 C         142.0622  142.2862  167.6844 C.3     1  UNL1        0.0602
      3 C         143.3896  142.1314  168.3654 C.3     1  UNL1        0.0068
      4 C         143.5306  142.4710  169.8196 C.3     1  UNL1        0.0173
      5 C         142.3442  142.9655  170.5928 C.3     1  UNL1        0.0686
      6 N         141.0167  143.1204  169.9117 N.3     1  UNL1       -0.2974
      7 C         140.8757  142.7807  168.4575 C.3     1  UNL1        0.0725
      8 H         140.7460  144.0985  170.0132 H       1  UNL1        0.1232
      9 C         143.1431  141.7049  165.3945 C.ar    1  UNL1        0.0364
     10 C         143.6127  140.3031  165.1403 C.ar    1  UNL1        0.0023
     11 C         144.8347  140.0614  164.3047 C.ar    1  UNL1        0.0205
     12 C         145.5871  141.2214  163.7232 C.ar    1  UNL1        0.0989
     13 N         145.1176  142.6232  163.9773 N.ar    1  UNL1       -0.2425
     14 C         143.8956  142.8649  164.8129 C.ar    1  UNL1        0.0980
     15 O         140.5582  141.8487  165.6116 O.3     1  UNL1       -0.4738
     16 CL        139.2254  137.5556  163.0051 Cl      1  UNL1       -0.0813
     17 C         139.1845  138.3804  164.2574 C.ar    1  UNL1        0.0712
     18 C         138.4362  137.8834  165.4586 C.ar    1  UNL1        0.0125
     19 C         138.3952  138.7081  166.7109 C.ar    1  UNL1        0.0040
     20 C         139.1025  140.0298  166.7618 C.ar    1  UNL1        0.0378
     21 C         139.8508  140.5269  165.5606 C.ar    1  UNL1        0.1501
     22 C         139.8918  139.7021  164.3083 C.ar    1  UNL1        0.1020
     23 CL        140.6401  140.1992  163.1071 Cl      1  UNL1       -0.0782
@<TRIPOS>BOND
     1    16    17    1
     2    17    18   ar
     3    18    19   ar
     4    19    20   ar
     5    20    21   ar
     6    21    15    1
     7    15     1    1
     8     1     9    1
     9     9    10   ar
    10    10    11   ar
    11    11    12   ar
    12    12    13   ar
    13    13    14   ar
    14     2     1    1
    15     2     3    1
    16     3     4    1
    17     4     5    1
    18     5     6    1
    19     6     7    1
    20    21    22   ar
    21    22    23    1
    22    22    17   ar
    23    14     9   ar
    24     7     2    1
    25     6     8    1
