@<TRIPOS>MOLECULE
*****
 30 31 0 0 0
SMALL
GASTEIGER

@<TRIPOS>ATOM
      1 N         138.7512  139.3454  160.4527 N.3     1  UNL1       -0.2712
      2 C         140.0974  138.6866  160.3909 C.3     1  UNL1        0.0722
      3 C         140.3273  137.9787  161.6933 C.3     1  UNL1        0.0204
      4 C         139.1232  138.2001  162.5600 C.3     1  UNL1        0.0370
      5 C         138.1492  139.0447  161.7933 C.3     1  UNL1        0.0738
      6 C         138.1182  140.1615  159.3650 C.3     1  UNL1        0.0937
      7 C         138.5337  141.5881  159.1594 C.3     1  UNL1        0.1082
      8 N         137.9282  144.0851  162.1841 N.am    1  UNL1       -0.2921
      9 C         138.5288  142.9999  161.3403 C.2     1  UNL1        0.3007
     10 O         139.7252  142.2416  161.8339 O.2     1  UNL1       -0.2528
     11 N         137.9331  142.6732  160.0031 N.am    1  UNL1       -0.2875
     12 H         137.1430  144.5828  161.8602 H       1  UNL1        0.1508
     13 H         137.1479  143.1709  159.6791 H       1  UNL1        0.1510
     14 C         139.4601  145.3839  162.8667 C.3     1  UNL1        0.0197
     15 C         138.5240  144.4118  163.5213 C.3     1  UNL1        0.0583
     16 C         137.5878  143.4396  164.1759 C.3     1  UNL1        0.0197
     17 C         139.1198  144.7385  164.8586 C.3     1  UNL1        0.0197
     18 C         138.9276  137.6699  163.9494 C.3     1  UNL1        0.0911
     19 N         139.1114  138.5759  165.1307 N.am    1  UNL1       -0.3008
     20 C         140.4909  138.8816  165.6341 C.2     1  UNL1        0.2459
     21 O         141.6867  138.2812  164.9563 O.2     1  UNL1       -0.2701
     22 H         138.3265  138.9700  165.5756 H       1  UNL1        0.1497
     23 C         140.6746  139.7876  166.8154 C.ar    1  UNL1        0.0550
     24 C         141.9067  140.6361  166.9254 C.ar    1  UNL1        0.0160
     25 C         142.0904  141.5420  168.1067 C.ar    1  UNL1        0.0587
     26 CL        143.3225  142.3905  168.2167 Cl      1  UNL1       -0.0822
     27 C         141.0420  141.5996  169.1779 C.ar    1  UNL1        0.0228
     28 C         139.8100  140.7511  169.0679 C.ar    1  UNL1        0.0587
     29 CL        138.7616  140.8087  170.1392 Cl      1  UNL1       -0.0822
     30 C         139.6263  139.8452  167.8867 C.ar    1  UNL1        0.0160
@<TRIPOS>BOND
     1    14    15    1
     2    15    16    1
     3    15    17    1
     4    15     8    1
     5     8     9   am
     6     9    10    2
     7     9    11   am
     8    11     7    1
     9     7     6    1
    10     6     1    1
    11     1     2    1
    12     2     3    1
    13     3     4    1
    14     4    18    1
    15    18    19    1
    16    19    20   am
    17    20    21    2
    18    20    23    1
    19    23    24   ar
    20    24    25   ar
    21    25    26    1
    22    25    27   ar
    23    27    28   ar
    24    28    29    1
    25    28    30   ar
    26     4     5    1
    27     5     1    1
    28    30    23   ar
    29     8    12    1
    30    11    13    1
    31    19    22    1
@<TRIPOS>MOLECULE
*****
 30 31 0 0 0
SMALL
GASTEIGER

@<TRIPOS>ATOM
      1 N         138.8314  139.4304  160.1913 N.3     1  UNL1       -0.2712
      2 C         140.1433  138.7031  160.1992 C.3     1  UNL1        0.0722
      3 C         140.2772  138.0030  161.5190 C.3     1  UNL1        0.0204
      4 C         139.0481  138.2975  162.3268 C.3     1  UNL1        0.0370
      5 C         138.1545  139.1797  161.5062 C.3     1  UNL1        0.0738
      6 C         138.2912  140.2623  159.0661 C.3     1  UNL1        0.0937
      7 C         138.6171  141.7246  158.9909 C.3     1  UNL1        0.1082
      8 N         137.8861  143.9916  162.1653 N.am    1  UNL1       -0.2921
      9 C         138.5626  143.0239  161.2401 C.2     1  UNL1        0.3007
     10 O         139.8613  142.3878  161.6389 O.2     1  UNL1       -0.2528
     11 N         137.9406  142.6922  159.9161 N.am    1  UNL1       -0.2875
     12 H         137.0338  144.4091  161.9035 H       1  UNL1        0.1508
     13 H         137.0883  143.1097  159.6543 H       1  UNL1        0.1510
     14 C         139.3314  145.3928  162.8347 C.3     1  UNL1        0.0197
     15 C         138.5083  144.3232  163.4893 C.3     1  UNL1        0.0583
     16 C         137.6851  143.2537  164.1439 C.3     1  UNL1        0.0197
     17 C         139.1304  144.6548  164.8133 C.3     1  UNL1        0.0197
     18 C         138.7627  137.7976  163.7119 C.3     1  UNL1        0.0911
     19 N         138.9751  138.6978  164.8928 N.am    1  UNL1       -0.3008
     20 C         140.3429  138.8383  165.4923 C.2     1  UNL1        0.2459
     21 O         141.4982  138.0786  164.9109 O.2     1  UNL1       -0.2701
     22 H         138.2168  139.1965  165.2744 H       1  UNL1        0.1497
     23 C         140.5553  139.7386  166.6732 C.ar    1  UNL1        0.0550
     24 C         139.5470  139.7701  167.7833 C.ar    1  UNL1        0.0160
     25 C         139.7595  140.6703  168.9641 C.ar    1  UNL1        0.0587
     26 CL        138.7512  140.7018  170.0743 Cl      1  UNL1       -0.0822
     27 C         140.9803  141.5390  169.0349 C.ar    1  UNL1        0.0228
     28 C         141.9886  141.5075  167.9248 C.ar    1  UNL1        0.0587
     29 CL        143.2094  142.3763  167.9956 Cl      1  UNL1       -0.0822
     30 C         141.7761  140.6073  166.7440 C.ar    1  UNL1        0.0160
@<TRIPOS>BOND
     1    14    15    1
     2    15    16    1
     3    15    17    1
     4    15     8    1
     5     8     9   am
     6     9    10    2
     7     9    11   am
     8    11     7    1
     9     7     6    1
    10     6     1    1
    11     1     2    1
    12     2     3    1
    13     3     4    1
    14     4    18    1
    15    18    19    1
    16    19    20   am
    17    20    21    2
    18    20    23    1
    19    23    24   ar
    20    24    25   ar
    21    25    26    1
    22    25    27   ar
    23    27    28   ar
    24    28    29    1
    25    28    30   ar
    26     4     5    1
    27     5     1    1
    28    30    23   ar
    29     8    12    1
    30    11    13    1
    31    19    22    1
@<TRIPOS>MOLECULE
*****
 30 31 0 0 0
SMALL
GASTEIGER

@<TRIPOS>ATOM
      1 N         140.5198  138.0547  162.4803 N.3     1  UNL1       -0.2712
      2 C         141.7145  137.9713  161.5771 C.3     1  UNL1        0.0722
      3 C         142.9433  138.1689  162.4143 C.3     1  UNL1        0.0204
      4 C         142.5081  138.3746  163.8350 C.3     1  UNL1        0.0370
      5 C         141.0103  138.3039  163.8758 C.3     1  UNL1        0.0738
      6 C         139.0864  137.9137  162.0616 C.3     1  UNL1        0.0937
      7 C         138.2557  139.1364  161.8067 C.3     1  UNL1        0.1082
      8 N         139.2423  142.7981  162.9767 N.am    1  UNL1       -0.2921
      9 C         138.6048  141.4404  162.9553 C.2     1  UNL1        0.3007
     10 O         137.6787  141.0293  164.0614 O.2     1  UNL1       -0.2528
     11 N         138.8933  140.4940  161.8280 N.am    1  UNL1       -0.2875
     12 H         139.8502  143.0679  162.2507 H       1  UNL1        0.1508
     13 H         139.5011  140.7638  161.1021 H       1  UNL1        0.1510
     14 C         137.7812  144.2912  163.3449 C.3     1  UNL1        0.0197
     15 C         138.9538  143.7446  164.1040 C.3     1  UNL1        0.0583
     16 C         140.1263  143.1979  164.8631 C.3     1  UNL1        0.0197
     17 C         138.6652  144.6910  165.2314 C.3     1  UNL1        0.0197
     18 C         143.4120  138.6095  165.0087 C.3     1  UNL1        0.0911
     19 N         142.8441  139.1067  166.3050 N.am    1  UNL1       -0.3008
     20 C         142.6779  140.5796  166.5351 C.2     1  UNL1        0.2459
     21 O         143.0796  141.5553  165.4690 O.2     1  UNL1       -0.2701
     22 H         142.5804  138.4664  167.0048 H       1  UNL1        0.1497
     23 C         142.1100  141.0768  167.8314 C.ar    1  UNL1        0.0550
     24 C         140.7556  140.6164  168.2826 C.ar    1  UNL1        0.0160
     25 C         140.1878  141.1136  169.5788 C.ar    1  UNL1        0.0587
     26 CL        138.8333  140.6532  170.0300 Cl      1  UNL1       -0.0822
     27 C         140.9743  142.0713  170.4239 C.ar    1  UNL1        0.0228
     28 C         142.3287  142.5317  169.9728 C.ar    1  UNL1        0.0587
     29 CL        143.1153  143.4894  170.8179 Cl      1  UNL1       -0.0822
     30 C         142.8966  142.0345  168.6765 C.ar    1  UNL1        0.0160
@<TRIPOS>BOND
     1    14    15    1
     2    15    16    1
     3    15    17    1
     4    15     8    1
     5     8     9   am
     6     9    10    2
     7     9    11   am
     8    11     7    1
     9     7     6    1
    10     6     1    1
    11     1     2    1
    12     2     3    1
    13     3     4    1
    14     4    18    1
    15    18    19    1
    16    19    20   am
    17    20    21    2
    18    20    23    1
    19    23    24   ar
    20    24    25   ar
    21    25    26    1
    22    25    27   ar
    23    27    28   ar
    24    28    29    1
    25    28    30   ar
    26     4     5    1
    27     5     1    1
    28    30    23   ar
    29     8    12    1
    30    11    13    1
    31    19    22    1
@<TRIPOS>MOLECULE
*****
 30 31 0 0 0
SMALL
GASTEIGER

@<TRIPOS>ATOM
      1 N         139.2587  143.8871  160.8433 N.3     1  UNL1       -0.2712
      2 C         140.0917  145.1335  160.7938 C.3     1  UNL1        0.0722
      3 C         140.1813  145.6867  162.1852 C.3     1  UNL1        0.0204
      4 C         139.4037  144.7822  163.0946 C.3     1  UNL1        0.0370
      5 C         138.8335  143.6699  162.2653 C.3     1  UNL1        0.0738
      6 C         138.9118  143.0115  159.6758 C.3     1  UNL1        0.0937
      7 C         139.1326  141.5301  159.7576 C.3     1  UNL1        0.1082
      8 N         138.0706  139.3322  162.8868 N.am    1  UNL1       -0.2921
      9 C         138.9017  140.1641  161.9554 C.2     1  UNL1        0.3007
     10 O         140.3331  140.4617  162.2907 O.2     1  UNL1       -0.2528
     11 N         138.3014  140.6983  160.6889 N.am    1  UNL1       -0.2875
     12 H         137.1311  139.1369  162.6667 H       1  UNL1        0.1508
     13 H         137.3620  140.5030  160.4688 H       1  UNL1        0.1510
     14 C         138.2550  140.0447  164.8763 C.3     1  UNL1        0.0197
     15 C         138.6709  138.7980  164.1533 C.3     1  UNL1        0.0583
     16 C         139.0868  137.5513  163.4304 C.3     1  UNL1        0.0197
     17 C         139.2712  138.2638  165.4199 C.3     1  UNL1        0.0197
     18 C         139.2273  144.9588  164.5737 C.3     1  UNL1        0.0911
     19 N         139.4229  143.7928  165.4969 N.am    1  UNL1       -0.3008
     20 C         140.7708  143.1448  165.6114 C.2     1  UNL1        0.2459
     21 O         141.9231  143.6627  164.8027 O.2     1  UNL1       -0.2701
     22 H         138.6667  143.4529  166.0277 H       1  UNL1        0.1497
     23 C         140.9665  141.9788  166.5347 C.ar    1  UNL1        0.0550
     24 C         140.1297  141.8543  167.7733 C.ar    1  UNL1        0.0160
     25 C         140.3253  140.6884  168.6964 C.ar    1  UNL1        0.0587
     26 CL        139.4885  140.5638  169.9351 Cl      1  UNL1       -0.0822
     27 C         141.3578  139.6470  168.3810 C.ar    1  UNL1        0.0228
     28 C         142.1947  139.7715  167.1424 C.ar    1  UNL1        0.0587
     29 CL        143.2272  138.7302  166.8270 Cl      1  UNL1       -0.0822
     30 C         141.9990  140.9375  166.2192 C.ar    1  UNL1        0.0160
@<TRIPOS>BOND
     1    14    15    1
     2    15    16    1
     3    15    17    1
     4    15     8    1
     5     8     9   am
     6     9    10    2
     7     9    11   am
     8    11     7    1
     9     7     6    1
    10     6     1    1
    11     1     2    1
    12     2     3    1
    13     3     4    1
    14     4    18    1
    15    18    19    1
    16    19    20   am
    17    20    21    2
    18    20    23    1
    19    23    24   ar
    20    24    25   ar
    21    25    26    1
    22    25    27   ar
    23    27    28   ar
    24    28    29    1
    25    28    30   ar
    26     4     5    1
    27     5     1    1
    28    30    23   ar
    29     8    12    1
    30    11    13    1
    31    19    22    1
@<TRIPOS>MOLECULE
*****
 30 31 0 0 0
SMALL
GASTEIGER

@<TRIPOS>ATOM
      1 N         140.1393  138.3618  161.4217 N.3     1  UNL1       -0.2712
      2 C         141.1686  138.3978  160.3311 C.3     1  UNL1        0.0722
      3 C         142.5127  138.5906  160.9685 C.3     1  UNL1        0.0204
      4 C         142.3141  138.6737  162.4529 C.3     1  UNL1        0.0370
      5 C         140.8473  138.5323  162.7330 C.3     1  UNL1        0.0738
      6 C         138.6615  138.1862  161.2339 C.3     1  UNL1        0.0937
      7 C         137.7825  139.3858  161.0386 C.3     1  UNL1        0.1082
      8 N         137.5779  142.0869  163.9390 N.am    1  UNL1       -0.2921
      9 C         138.0739  141.3189  162.7497 C.2     1  UNL1        0.3007
     10 O         139.3572  141.7161  162.0824 O.2     1  UNL1       -0.2528
     11 N         137.2866  140.1538  162.2278 N.am    1  UNL1       -0.2875
     12 H         136.7356  141.8263  164.3770 H       1  UNL1        0.1508
     13 H         136.4443  139.8931  162.6657 H       1  UNL1        0.1510
     14 C         139.1127  142.3343  165.3824 C.3     1  UNL1        0.0197
     15 C         138.3653  143.2521  164.4609 C.3     1  UNL1        0.0583
     16 C         137.6180  144.1699  163.5393 C.3     1  UNL1        0.0197
     17 C         139.1528  144.4173  164.9827 C.3     1  UNL1        0.0197
     18 C         143.3930  138.8647  163.4774 C.3     1  UNL1        0.0911
     19 N         143.0339  139.0113  164.9264 N.am    1  UNL1       -0.3008
     20 C         142.9691  140.3746  165.5488 C.2     1  UNL1        0.2459
     21 O         143.2635  141.5912  164.7223 O.2     1  UNL1       -0.2701
     22 H         142.8407  138.2128  165.4689 H       1  UNL1        0.1497
     23 C         142.6100  140.5212  166.9978 C.ar    1  UNL1        0.0550
     24 C         142.0561  141.8194  167.5056 C.ar    1  UNL1        0.0160
     25 C         141.6970  141.9660  168.9545 C.ar    1  UNL1        0.0587
     26 CL        141.1431  143.2642  169.4624 Cl      1  UNL1       -0.0822
     27 C         141.8918  140.8144  169.8957 C.ar    1  UNL1        0.0228
     28 C         142.4457  139.5162  169.3880 C.ar    1  UNL1        0.0587
     29 CL        142.6406  138.3646  170.3292 Cl      1  UNL1       -0.0822
     30 C         142.8048  139.3696  167.9390 C.ar    1  UNL1        0.0160
@<TRIPOS>BOND
     1    14    15    1
     2    15    16    1
     3    15    17    1
     4    15     8    1
     5     8     9   am
     6     9    10    2
     7     9    11   am
     8    11     7    1
     9     7     6    1
    10     6     1    1
    11     1     2    1
    12     2     3    1
    13     3     4    1
    14     4    18    1
    15    18    19    1
    16    19    20   am
    17    20    21    2
    18    20    23    1
    19    23    24   ar
    20    24    25   ar
    21    25    26    1
    22    25    27   ar
    23    27    28   ar
    24    28    29    1
    25    28    30   ar
    26     4     5    1
    27     5     1    1
    28    30    23   ar
    29     8    12    1
    30    11    13    1
    31    19    22    1
@<TRIPOS>MOLECULE
*****
 30 31 0 0 0
SMALL
GASTEIGER

@<TRIPOS>ATOM
      1 N         141.3787  138.0202  161.1638 N.3     1  UNL1       -0.2712
      2 C         140.1666  138.6779  160.5737 C.3     1  UNL1        0.0722
      3 C         139.1213  138.7704  161.6455 C.3     1  UNL1        0.0204
      4 C         139.6873  138.1699  162.8980 C.3     1  UNL1        0.0370
      5 C         141.0825  137.7062  162.6004 C.3     1  UNL1        0.0738
      6 C         142.6617  137.7277  160.4439 C.3     1  UNL1        0.0937
      7 C         143.7650  138.7440  160.4347 C.3     1  UNL1        0.1082
      8 N         144.7477  140.4431  163.8840 N.am    1  UNL1       -0.2921
      9 C         144.0053  140.1307  162.6185 C.2     1  UNL1        0.3007
     10 O         142.7606  140.8927  162.2716 O.2     1  UNL1       -0.2528
     11 N         144.5074  139.0564  161.7001 N.am    1  UNL1       -0.2875
     12 H         145.5646  139.9430  164.1117 H       1  UNL1        0.1508
     13 H         145.3243  138.5563  161.9278 H       1  UNL1        0.1510
     14 C         145.1396  142.5139  164.1258 C.3     1  UNL1        0.0197
     15 C         144.2455  141.5175  164.8024 C.3     1  UNL1        0.0583
     16 C         143.3514  140.5211  165.4790 C.3     1  UNL1        0.0197
     17 C         143.7433  142.5919  165.7208 C.3     1  UNL1        0.0197
     18 C         138.9820  138.0534  164.2167 C.3     1  UNL1        0.0911
     19 N         139.6557  138.5238  165.4717 N.am    1  UNL1       -0.3008
     20 C         139.4622  139.9345  165.9432 C.2     1  UNL1        0.2459
     21 O         138.5950  140.8749  165.1598 O.2     1  UNL1       -0.2701
     22 H         140.2248  137.9066  165.9859 H       1  UNL1        0.1497
     23 C         140.1358  140.4049  167.1983 C.ar    1  UNL1        0.0550
     24 C         140.9806  139.4568  167.9966 C.ar    1  UNL1        0.0160
     25 C         141.6542  139.9272  169.2516 C.ar    1  UNL1        0.0587
     26 CL        142.4990  138.9791  170.0500 Cl      1  UNL1       -0.0822
     27 C         141.4831  141.3458  169.7081 C.ar    1  UNL1        0.0228
     28 C         140.6383  142.2939  168.9098 C.ar    1  UNL1        0.0587
     29 CL        140.4672  143.7124  169.3663 Cl      1  UNL1       -0.0822
     30 C         139.9647  141.8235  167.6548 C.ar    1  UNL1        0.0160
@<TRIPOS>BOND
     1    14    15    1
     2    15    16    1
     3    15    17    1
     4    15     8    1
     5     8     9   am
     6     9    10    2
     7     9    11   am
     8    11     7    1
     9     7     6    1
    10     6     1    1
    11     1     2    1
    12     2     3    1
    13     3     4    1
    14     4    18    1
    15    18    19    1
    16    19    20   am
    17    20    21    2
    18    20    23    1
    19    23    24   ar
    20    24    25   ar
    21    25    26    1
    22    25    27   ar
    23    27    28   ar
    24    28    29    1
    25    28    30   ar
    26     4     5    1
    27     5     1    1
    28    30    23   ar
    29     8    12    1
    30    11    13    1
    31    19    22    1
@<TRIPOS>MOLECULE
*****
 30 31 0 0 0
SMALL
GASTEIGER

@<TRIPOS>ATOM
      1 N         138.1430  140.9786  162.2999 N.3     1  UNL1       -0.2712
      2 C         138.1912  139.6626  161.5817 C.3     1  UNL1        0.0722
      3 C         138.3514  138.5802  162.6077 C.3     1  UNL1        0.0204
      4 C         138.4022  139.2272  163.9600 C.3     1  UNL1        0.0370
      5 C         138.2733  140.7095  163.7698 C.3     1  UNL1        0.0738
      6 C         137.9910  142.3270  161.6605 C.3     1  UNL1        0.0937
      7 C         138.9814  143.4137  161.9574 C.3     1  UNL1        0.1082
      8 N         142.7693  143.1161  163.1036 N.am    1  UNL1       -0.2921
      9 C         141.2992  143.4132  163.1311 C.2     1  UNL1        0.3007
     10 O         140.6769  144.0068  164.3601 O.2     1  UNL1       -0.2528
     11 N         140.4515  143.1166  161.9298 N.am    1  UNL1       -0.2875
     12 H         143.1778  142.7265  162.2970 H       1  UNL1        0.1508
     13 H         140.8599  142.7270  161.1232 H       1  UNL1        0.1510
     14 C         143.8394  144.8087  163.8034 C.3     1  UNL1        0.0197
     15 C         143.6170  143.4127  164.3050 C.3     1  UNL1        0.0583
     16 C         143.3947  142.0166  164.8066 C.3     1  UNL1        0.0197
     17 C         144.4648  143.7093  165.5064 C.3     1  UNL1        0.0197
     18 C         138.5549  138.5166  165.2721 C.3     1  UNL1        0.0911
     19 N         139.0298  139.2674  166.4808 N.am    1  UNL1       -0.3008
     20 C         140.4863  139.5885  166.6400 C.2     1  UNL1        0.2459
     21 O         141.4681  139.1588  165.5905 O.2     1  UNL1       -0.2701
     22 H         138.3854  139.5494  167.1697 H       1  UNL1        0.1497
     23 C         140.9611  140.3393  167.8487 C.ar    1  UNL1        0.0550
     24 C         140.4408  141.7183  168.1273 C.ar    1  UNL1        0.0160
     25 C         140.9157  142.4690  169.3359 C.ar    1  UNL1        0.0587
     26 CL        140.3954  143.8481  169.6146 Cl      1  UNL1       -0.0822
     27 C         141.9108  141.8407  170.2660 C.ar    1  UNL1        0.0228
     28 C         142.4310  140.4617  169.9874 C.ar    1  UNL1        0.0587
     29 CL        143.4261  139.8335  170.9175 Cl      1  UNL1       -0.0822
     30 C         141.9562  139.7110  168.7788 C.ar    1  UNL1        0.0160
@<TRIPOS>BOND
     1    14    15    1
     2    15    16    1
     3    15    17    1
     4    15     8    1
     5     8     9   am
     6     9    10    2
     7     9    11   am
     8    11     7    1
     9     7     6    1
    10     6     1    1
    11     1     2    1
    12     2     3    1
    13     3     4    1
    14     4    18    1
    15    18    19    1
    16    19    20   am
    17    20    21    2
    18    20    23    1
    19    23    24   ar
    20    24    25   ar
    21    25    26    1
    22    25    27   ar
    23    27    28   ar
    24    28    29    1
    25    28    30   ar
    26     4     5    1
    27     5     1    1
    28    30    23   ar
    29     8    12    1
    30    11    13    1
    31    19    22    1
@<TRIPOS>MOLECULE
*****
 30 31 0 0 0
SMALL
GASTEIGER

@<TRIPOS>ATOM
      1 N         141.1288  140.7693  158.3953 N.3     1  UNL1       -0.2712
      2 C         140.9177  139.4208  157.7730 C.3     1  UNL1        0.0722
      3 C         141.3592  138.3807  158.7596 C.3     1  UNL1        0.0204
      4 C         141.8432  139.0864  159.9916 C.3     1  UNL1        0.0370
      5 C         141.7008  140.5625  159.7664 C.3     1  UNL1        0.0738
      6 C         140.8219  142.0921  157.7582 C.3     1  UNL1        0.0937
      7 C         140.4185  143.2591  158.6099 C.3     1  UNL1        0.1082
      8 N         137.7639  143.0921  161.5554 N.am    1  UNL1       -0.2921
      9 C         139.0766  143.1115  160.8297 C.2     1  UNL1        0.3007
     10 O         140.3602  143.0026  161.5983 O.2     1  UNL1       -0.2528
     11 N         139.1058  143.2397  159.3355 N.am    1  UNL1       -0.2875
     12 H         136.9215  143.1635  161.0510 H       1  UNL1        0.1508
     13 H         138.2634  143.3111  158.8311 H       1  UNL1        0.1510
     14 C         137.9221  144.4464  163.1805 C.3     1  UNL1        0.0197
     15 C         137.7348  142.9639  163.0496 C.3     1  UNL1        0.0583
     16 C         137.5475  141.4814  162.9187 C.3     1  UNL1        0.0197
     17 C         137.7057  142.8356  164.5438 C.3     1  UNL1        0.0197
     18 C         142.3760  138.4309  161.2311 C.3     1  UNL1        0.0911
     19 N         141.8243  138.8065  162.5745 N.am    1  UNL1       -0.3008
     20 C         140.4466  138.3642  162.9698 C.2     1  UNL1        0.2459
     21 O         139.6205  137.5465  162.0217 O.2     1  UNL1       -0.2701
     22 H         142.3664  139.3432  163.1968 H       1  UNL1        0.1497
     23 C         139.8948  138.7398  164.3131 C.ar    1  UNL1        0.0550
     24 C         140.3599  139.9945  164.9909 C.ar    1  UNL1        0.0160
     25 C         139.8082  140.3699  166.3342 C.ar    1  UNL1        0.0587
     26 CL        140.2733  141.6247  167.0120 Cl      1  UNL1       -0.0822
     27 C         138.7913  139.4907  166.9998 C.ar    1  UNL1        0.0228
     28 C         138.3262  138.2361  166.3220 C.ar    1  UNL1        0.0587
     29 CL        137.3094  137.3569  166.9876 Cl      1  UNL1       -0.0822
     30 C         138.8780  137.8606  164.9787 C.ar    1  UNL1        0.0160
@<TRIPOS>BOND
     1    14    15    1
     2    15    16    1
     3    15    17    1
     4    15     8    1
     5     8     9   am
     6     9    10    2
     7     9    11   am
     8    11     7    1
     9     7     6    1
    10     6     1    1
    11     1     2    1
    12     2     3    1
    13     3     4    1
    14     4    18    1
    15    18    19    1
    16    19    20   am
    17    20    21    2
    18    20    23    1
    19    23    24   ar
    20    24    25   ar
    21    25    26    1
    22    25    27   ar
    23    27    28   ar
    24    28    29    1
    25    28    30   ar
    26     4     5    1
    27     5     1    1
    28    30    23   ar
    29     8    12    1
    30    11    13    1
    31    19    22    1
@<TRIPOS>MOLECULE
*****
 30 31 0 0 0
SMALL
GASTEIGER

@<TRIPOS>ATOM
      1 N         143.4685  140.4985  158.7917 N.3     1  UNL1       -0.2712
      2 C         142.8924  139.2521  158.1879 C.3     1  UNL1        0.0722
      3 C         142.8069  138.2118  159.2652 C.3     1  UNL1        0.0204
      4 C         143.3302  138.8153  160.5348 C.3     1  UNL1        0.0370
      5 C         143.7390  140.2286  160.2422 C.3     1  UNL1        0.0738
      6 C         143.7284  141.7884  158.0715 C.3     1  UNL1        0.0937
      7 C         142.7283  142.9038  158.1462 C.3     1  UNL1        0.1082
      8 N         142.2301  144.9451  161.5129 N.am    1  UNL1       -0.2921
      9 C         142.0877  143.8788  160.4675 C.2     1  UNL1        0.3007
     10 O         141.1621  142.7212  160.6983 O.2     1  UNL1       -0.2528
     11 N         142.8707  143.9700  159.1915 N.am    1  UNL1       -0.2875
     12 H         142.8376  145.7049  161.3615 H       1  UNL1        0.1508
     13 H         143.4782  144.7298  159.0400 H       1  UNL1        0.1510
     14 C         142.5536  144.0548  163.4110 C.3     1  UNL1        0.0197
     15 C         141.4470  144.8538  162.7890 C.3     1  UNL1        0.0583
     16 C         140.3403  145.6528  162.1670 C.3     1  UNL1        0.0197
     17 C         140.6638  144.7625  164.0651 C.3     1  UNL1        0.0197
     18 C         143.4274  138.1265  161.8637 C.3     1  UNL1        0.0911
     19 N         142.6487  138.6453  163.0362 N.am    1  UNL1       -0.3008
     20 C         141.2174  138.2386  163.2250 C.2     1  UNL1        0.2459
     21 O         140.5646  137.3131  162.2415 O.2     1  UNL1       -0.2701
     22 H         143.0771  139.2527  163.6817 H       1  UNL1        0.1497
     23 C         140.4386  138.7574  164.3975 C.ar    1  UNL1        0.0550
     24 C         140.7343  140.1200  164.9505 C.ar    1  UNL1        0.0160
     25 C         139.9556  140.6387  166.1229 C.ar    1  UNL1        0.0587
     26 CL        140.2512  142.0014  166.6759 Cl      1  UNL1       -0.0822
     27 C         138.8813  139.7948  166.7423 C.ar    1  UNL1        0.0228
     28 C         138.5857  138.4322  166.1893 C.ar    1  UNL1        0.0587
     29 CL        137.5113  137.5882  166.8087 Cl      1  UNL1       -0.0822
     30 C         139.3643  137.9135  165.0169 C.ar    1  UNL1        0.0160
@<TRIPOS>BOND
     1    14    15    1
     2    15    16    1
     3    15    17    1
     4    15     8    1
     5     8     9   am
     6     9    10    2
     7     9    11   am
     8    11     7    1
     9     7     6    1
    10     6     1    1
    11     1     2    1
    12     2     3    1
    13     3     4    1
    14     4    18    1
    15    18    19    1
    16    19    20   am
    17    20    21    2
    18    20    23    1
    19    23    24   ar
    20    24    25   ar
    21    25    26    1
    22    25    27   ar
    23    27    28   ar
    24    28    29    1
    25    28    30   ar
    26     4     5    1
    27     5     1    1
    28    30    23   ar
    29     8    12    1
    30    11    13    1
    31    19    22    1
