@<TRIPOS>MOLECULE
*****
 32 35 0 0 0
SMALL
GASTEIGER

@<TRIPOS>ATOM
      1 N         140.1006  137.7020  164.2651 N.3     1  UNL1       -0.2700
      2 C         139.9121  137.6839  162.7771 C.3     1  UNL1        0.0897
      3 C         141.0960  137.8379  161.8691 C.3     1  UNL1        0.0897
      4 N         142.4686  138.0099  162.4490 N.3     1  UNL1       -0.2700
      5 C         142.6573  138.0281  163.9370 C.3     1  UNL1        0.0897
      6 C         141.4732  137.8741  164.8450 C.3     1  UNL1        0.0897
      7 C         138.9167  137.5481  165.1731 C.3     1  UNL1        0.0765
      8 C         138.3312  138.7504  165.8525 C.3     1  UNL1        0.0384
      9 C         137.5356  138.5861  167.1135 C.3     1  UNL1        0.0061
     10 C         138.1149  141.8478  163.3809 C.ar    1  UNL1        0.1479
     11 C         137.9048  140.4812  163.9624 C.ar    1  UNL1        0.0334
     12 C         138.5413  140.1170  165.2710 C.ar    1  UNL1       -0.0181
     13 C         139.3879  141.1195  165.9979 C.ar    1  UNL1       -0.0033
     14 C         139.5980  142.4861  165.4164 C.ar    1  UNL1        0.0130
     15 C         138.9615  142.8502  164.1078 C.ar    1  UNL1        0.1023
     16 C         138.2132  141.9689  160.7875 C.3     1  UNL1        0.2525
     17 O         137.4785  142.2121  162.0724 O.3     1  UNL1       -0.4708
     18 C         139.1716  144.2169  163.5263 C.1     1  UNL1        0.1035
     19 N         139.3817  145.5835  162.9447 N.1     1  UNL1       -0.1907
     20 C         143.6526  138.1639  161.5410 C.3     1  UNL1        0.0769
     21 C         144.0732  139.5286  161.0819 C.3     1  UNL1        0.0433
     22 C         144.2226  140.6416  162.0764 C.ar    1  UNL1       -0.0249
     23 C         145.1850  140.5027  163.2185 C.ar    1  UNL1       -0.0043
     24 C         145.3343  141.6156  164.2130 C.ar    1  UNL1        0.0059
     25 C         144.5212  142.8674  164.0654 C.ar    1  UNL1        0.0748
     26 C         143.5588  143.0063  162.9233 C.ar    1  UNL1        0.0233
     27 C         143.4094  141.8934  161.9288 C.ar    1  UNL1       -0.0260
     28 C         142.4470  142.0323  160.7866 C.3     1  UNL1        0.0305
     29 C         142.8969  144.3477  163.0354 C.3     1  UNL1        0.2352
     30 O         143.4503  145.0379  164.2467 O.3     1  UNL1       -0.4404
     31 C         144.4542  144.1230  164.8834 C.2     1  UNL1        0.3413
     32 O         145.2511  144.4128  166.1207 O.2     1  UNL1       -0.2449
@<TRIPOS>BOND
     1    16    17    1
     2    17    10    1
     3    10    11   ar
     4    11    12   ar
     5    12     8    1
     6     8     9    1
     7     8     7    1
     8     7     1    1
     9     1     2    1
    10     2     3    1
    11     3     4    1
    12     4    20    1
    13    20    21    1
    14    21    22    1
    15    22    23   ar
    16    23    24   ar
    17    24    25   ar
    18    25    26   ar
    19    26    27   ar
    20    27    28    1
    21    26    29    1
    22    29    30    1
    23    30    31    1
    24    31    32    2
    25     4     5    1
    26     5     6    1
    27    12    13   ar
    28    13    14   ar
    29    14    15   ar
    30    15    18    1
    31    18    19    3
    32    15    10   ar
    33     6     1    1
    34    27    22   ar
    35    31    25    1
@<TRIPOS>MOLECULE
*****
 32 35 0 0 0
SMALL
GASTEIGER

@<TRIPOS>ATOM
      1 N         140.6365  140.3702  166.7743 N.3     1  UNL1       -0.2700
      2 C         140.7980  141.8424  166.5361 C.3     1  UNL1        0.0897
      3 C         142.0399  142.3635  165.8759 C.3     1  UNL1        0.0897
      4 N         143.1204  141.4126  165.4537 N.3     1  UNL1       -0.2700
      5 C         142.9591  139.9404  165.6919 C.3     1  UNL1        0.0897
      6 C         141.7171  139.4193  166.3522 C.3     1  UNL1        0.0897
      7 C         139.3947  139.8489  167.4346 C.3     1  UNL1        0.0765
      8 C         138.3870  139.0779  166.6345 C.3     1  UNL1        0.0384
      9 C         137.4108  138.1748  167.3283 C.3     1  UNL1        0.0061
     10 C         137.8342  140.6116  163.0163 C.ar    1  UNL1        0.1479
     11 C         137.8655  140.4796  164.5101 C.ar    1  UNL1        0.0334
     12 C         138.3557  139.2099  165.1407 C.ar    1  UNL1       -0.0181
     13 C         138.8144  138.0722  164.2774 C.ar    1  UNL1       -0.0033
     14 C         138.7831  138.2042  162.7835 C.ar    1  UNL1        0.0130
     15 C         138.2929  139.4739  162.1530 C.ar    1  UNL1        0.1023
     16 C         137.6466  143.2029  163.0273 C.3     1  UNL1        0.2525
     17 O         137.3440  141.8812  162.3856 O.3     1  UNL1       -0.4708
     18 C         138.2616  139.6060  160.6592 C.1     1  UNL1        0.1035
     19 N         138.2302  139.7380  159.1653 N.1     1  UNL1       -0.1907
     20 C         144.3623  141.9339  164.7935 C.3     1  UNL1        0.0769
     21 C         144.4342  142.0266  163.2980 C.3     1  UNL1        0.0433
     22 C         143.2084  142.3797  162.5087 C.ar    1  UNL1       -0.0249
     23 C         142.4419  141.3067  161.7939 C.ar    1  UNL1       -0.0043
     24 C         141.2161  141.6597  161.0046 C.ar    1  UNL1        0.0059
     25 C         140.7570  143.0858  160.9301 C.ar    1  UNL1        0.0748
     26 C         141.5236  144.1588  161.6450 C.ar    1  UNL1        0.0233
     27 C         142.7493  143.8058  162.4343 C.ar    1  UNL1       -0.0260
     28 C         143.5159  144.8788  163.1491 C.3     1  UNL1        0.0305
     29 C         140.8353  145.4673  161.3916 C.3     1  UNL1        0.2352
     30 O         139.6434  145.2029  160.5202 O.3     1  UNL1       -0.4404
     31 C         139.5950  143.7311  160.2350 C.2     1  UNL1        0.3413
     32 O         138.5653  143.0280  159.4010 O.2     1  UNL1       -0.2449
@<TRIPOS>BOND
     1    16    17    1
     2    17    10    1
     3    10    11   ar
     4    11    12   ar
     5    12     8    1
     6     8     9    1
     7     8     7    1
     8     7     1    1
     9     1     2    1
    10     2     3    1
    11     3     4    1
    12     4    20    1
    13    20    21    1
    14    21    22    1
    15    22    23   ar
    16    23    24   ar
    17    24    25   ar
    18    25    26   ar
    19    26    27   ar
    20    27    28    1
    21    26    29    1
    22    29    30    1
    23    30    31    1
    24    31    32    2
    25     4     5    1
    26     5     6    1
    27    12    13   ar
    28    13    14   ar
    29    14    15   ar
    30    15    18    1
    31    18    19    3
    32    15    10   ar
    33     6     1    1
    34    27    22   ar
    35    31    25    1
@<TRIPOS>MOLECULE
*****
 32 35 0 0 0
SMALL
GASTEIGER

@<TRIPOS>ATOM
      1 N         143.6567  140.3974  164.6204 N.3     1  UNL1       -0.2700
      2 C         143.3777  139.5866  163.3897 C.3     1  UNL1        0.0897
      3 C         142.2871  138.5568  163.4012 C.3     1  UNL1        0.0897
      4 N         141.4755  138.3377  164.6435 N.3     1  UNL1       -0.2700
      5 C         141.7544  139.1485  165.8743 C.3     1  UNL1        0.0897
      6 C         142.8450  140.1784  165.8627 C.3     1  UNL1        0.0897
      7 C         144.7472  141.4273  164.6090 C.3     1  UNL1        0.0765
      8 C         144.4012  142.8864  164.6427 C.3     1  UNL1        0.0384
      9 C         144.9759  143.7689  165.7109 C.3     1  UNL1        0.0061
     10 C         142.8555  143.8473  161.1161 C.ar    1  UNL1        0.1479
     11 C         143.7762  143.2706  162.1504 C.ar    1  UNL1        0.0334
     12 C         143.4806  143.4631  163.6084 C.ar    1  UNL1       -0.0181
     13 C         142.2644  144.2322  164.0319 C.ar    1  UNL1       -0.0033
     14 C         141.3438  144.8088  162.9976 C.ar    1  UNL1        0.0130
     15 C         141.6394  144.6164  161.5396 C.ar    1  UNL1        0.1023
     16 C         143.8999  142.4391  159.1987 C.3     1  UNL1        0.2525
     17 O         143.1510  143.6549  159.6581 O.3     1  UNL1       -0.4708
     18 C         140.7187  145.1930  160.5053 C.1     1  UNL1        0.1035
     19 N         139.7981  145.7697  159.4709 N.1     1  UNL1       -0.1907
     20 C         140.3850  137.3079  164.6550 C.3     1  UNL1        0.0769
     21 C         138.9821  137.6970  164.2936 C.3     1  UNL1        0.0433
     22 C         138.6846  139.0963  163.8421 C.ar    1  UNL1       -0.0249
     23 C         138.3480  140.1542  164.8507 C.ar    1  UNL1       -0.0043
     24 C         138.0505  141.5533  164.3993 C.ar    1  UNL1        0.0059
     25 C         138.0895  141.8945  162.9392 C.ar    1  UNL1        0.0748
     26 C         138.4260  140.8366  161.9304 C.ar    1  UNL1        0.0233
     27 C         138.7236  139.4374  162.3819 C.ar    1  UNL1       -0.0260
     28 C         139.0601  138.3794  161.3732 C.3     1  UNL1        0.0305
     29 C         138.3880  141.4653  160.5691 C.3     1  UNL1        0.2352
     30 O         138.0281  142.9118  160.7364 O.3     1  UNL1       -0.4404
     31 C         137.8435  143.1771  162.2012 C.2     1  UNL1        0.3413
     32 O         137.4774  144.4938  162.8194 O.2     1  UNL1       -0.2449
@<TRIPOS>BOND
     1    16    17    1
     2    17    10    1
     3    10    11   ar
     4    11    12   ar
     5    12     8    1
     6     8     9    1
     7     8     7    1
     8     7     1    1
     9     1     2    1
    10     2     3    1
    11     3     4    1
    12     4    20    1
    13    20    21    1
    14    21    22    1
    15    22    23   ar
    16    23    24   ar
    17    24    25   ar
    18    25    26   ar
    19    26    27   ar
    20    27    28    1
    21    26    29    1
    22    29    30    1
    23    30    31    1
    24    31    32    2
    25     4     5    1
    26     5     6    1
    27    12    13   ar
    28    13    14   ar
    29    14    15   ar
    30    15    18    1
    31    18    19    3
    32    15    10   ar
    33     6     1    1
    34    27    22   ar
    35    31    25    1
@<TRIPOS>MOLECULE
*****
 32 35 0 0 0
SMALL
GASTEIGER

@<TRIPOS>ATOM
      1 N         141.5210  137.9287  164.5240 N.3     1  UNL1       -0.2700
      2 C         142.1999  138.5905  165.6864 C.3     1  UNL1        0.0897
      3 C         143.5098  139.2941  165.4886 C.3     1  UNL1        0.0897
      4 N         144.1408  139.3360  164.1285 N.3     1  UNL1       -0.2700
      5 C         143.4620  138.6743  162.9660 C.3     1  UNL1        0.0897
      6 C         142.1520  137.9706  163.1638 C.3     1  UNL1        0.0897
      7 C         140.2112  137.2251  164.7217 C.3     1  UNL1        0.0765
      8 C         139.0140  137.9901  165.2029 C.3     1  UNL1        0.0384
      9 C         138.0967  137.3834  166.2229 C.3     1  UNL1        0.0061
     10 C         137.9520  140.8994  162.7214 C.ar    1  UNL1        0.1479
     11 C         138.2319  139.5278  163.2603 C.ar    1  UNL1        0.0334
     12 C         138.7341  139.3616  164.6639 C.ar    1  UNL1       -0.0181
     13 C         138.9563  140.5670  165.5286 C.ar    1  UNL1       -0.0033
     14 C         138.6764  141.9385  164.9897 C.ar    1  UNL1        0.0130
     15 C         138.1743  142.1047  163.5861 C.ar    1  UNL1        0.1023
     16 C         137.4759  139.9039  160.3692 C.3     1  UNL1        0.2525
     17 O         137.4498  141.0657  161.3178 O.3     1  UNL1       -0.4708
     18 C         137.8944  143.4763  163.0471 C.1     1  UNL1        0.1035
     19 N         137.6145  144.8479  162.5082 N.1     1  UNL1       -0.1907
     20 C         145.4507  140.0397  163.9307 C.3     1  UNL1        0.0769
     21 C         145.5236  141.5338  164.0414 C.3     1  UNL1        0.0433
     22 C         144.5153  142.3885  163.3322 C.ar    1  UNL1       -0.0249
     23 C         144.4718  142.4094  161.8330 C.ar    1  UNL1       -0.0043
     24 C         143.4636  143.2640  161.1238 C.ar    1  UNL1        0.0059
     25 C         142.4989  144.0979  161.9138 C.ar    1  UNL1        0.0748
     26 C         142.5425  144.0771  163.4130 C.ar    1  UNL1        0.0233
     27 C         143.5507  143.2224  164.1223 C.ar    1  UNL1       -0.0260
     28 C         143.5943  143.2015  165.6215 C.3     1  UNL1        0.0305
     29 C         141.4726  144.9978  163.9207 C.3     1  UNL1        0.2352
     30 O         140.7679  145.5876  162.7352 O.3     1  UNL1       -0.4404
     31 C         141.4021  145.0315  161.4949 C.2     1  UNL1        0.3413
     32 O         141.0087  145.3526  160.0835 O.2     1  UNL1       -0.2449
@<TRIPOS>BOND
     1    16    17    1
     2    17    10    1
     3    10    11   ar
     4    11    12   ar
     5    12     8    1
     6     8     9    1
     7     8     7    1
     8     7     1    1
     9     1     2    1
    10     2     3    1
    11     3     4    1
    12     4    20    1
    13    20    21    1
    14    21    22    1
    15    22    23   ar
    16    23    24   ar
    17    24    25   ar
    18    25    26   ar
    19    26    27   ar
    20    27    28    1
    21    26    29    1
    22    29    30    1
    23    30    31    1
    24    31    32    2
    25     4     5    1
    26     5     6    1
    27    12    13   ar
    28    13    14   ar
    29    14    15   ar
    30    15    18    1
    31    18    19    3
    32    15    10   ar
    33     6     1    1
    34    27    22   ar
    35    31    25    1
@<TRIPOS>MOLECULE
*****
 32 35 0 0 0
SMALL
GASTEIGER

@<TRIPOS>ATOM
      1 N         143.1871  139.0354  161.3895 N.3     1  UNL1       -0.2700
      2 C         143.6275  140.3428  160.8006 C.3     1  UNL1        0.0897
      3 C         144.5343  141.2488  161.5797 C.3     1  UNL1        0.0897
      4 N         145.0006  140.8475  162.9477 N.3     1  UNL1       -0.2700
      5 C         144.5601  139.5401  163.5367 C.3     1  UNL1        0.0897
      6 C         143.6534  138.6341  162.7576 C.3     1  UNL1        0.0897
      7 C         142.2803  138.1294  160.6105 C.3     1  UNL1        0.0765
      8 C         140.7927  138.2999  160.6996 C.3     1  UNL1        0.0384
      9 C         139.9749  138.4162  159.4476 C.3     1  UNL1        0.0061
     10 C         138.4976  139.5201  163.6985 C.ar    1  UNL1        0.1479
     11 C         139.1673  139.4659  162.3574 C.ar    1  UNL1        0.0334
     12 C         140.1230  138.3540  162.0407 C.ar    1  UNL1       -0.0181
     13 C         140.4089  137.2963  163.0651 C.ar    1  UNL1       -0.0033
     14 C         139.7392  137.3504  164.4062 C.ar    1  UNL1        0.0130
     15 C         138.7835  138.4623  164.7229 C.ar    1  UNL1        0.1023
     16 C         137.3497  141.7562  163.0410 C.3     1  UNL1        0.2525
     17 O         137.5419  140.6320  164.0152 O.3     1  UNL1       -0.4708
     18 C         138.1138  138.5165  166.0639 C.1     1  UNL1        0.1035
     19 N         137.4441  138.5707  167.4050 N.1     1  UNL1       -0.1907
     20 C         145.9073  141.7535  163.7267 C.3     1  UNL1        0.0769
     21 C         145.3267  142.7666  164.6683 C.3     1  UNL1        0.0433
     22 C         143.9332  143.2786  164.4531 C.ar    1  UNL1       -0.0249
     23 C         143.6675  144.3079  163.3949 C.ar    1  UNL1       -0.0043
     24 C         142.2740  144.8198  163.1797 C.ar    1  UNL1        0.0059
     25 C         141.1464  144.3024  164.0227 C.ar    1  UNL1        0.0748
     26 C         141.4122  143.2730  165.0809 C.ar    1  UNL1        0.0233
     27 C         142.8056  142.7611  165.2961 C.ar    1  UNL1       -0.0260
     28 C         143.0714  141.7317  166.3543 C.3     1  UNL1        0.0305
     29 C         140.1100  142.9518  165.7527 C.3     1  UNL1        0.2352
     30 O         139.0395  143.7827  165.1096 O.3     1  UNL1       -0.4404
     31 C         139.6800  144.6174  164.0404 C.2     1  UNL1        0.3413
     32 O         138.9774  145.5954  163.1461 O.2     1  UNL1       -0.2449
@<TRIPOS>BOND
     1    16    17    1
     2    17    10    1
     3    10    11   ar
     4    11    12   ar
     5    12     8    1
     6     8     9    1
     7     8     7    1
     8     7     1    1
     9     1     2    1
    10     2     3    1
    11     3     4    1
    12     4    20    1
    13    20    21    1
    14    21    22    1
    15    22    23   ar
    16    23    24   ar
    17    24    25   ar
    18    25    26   ar
    19    26    27   ar
    20    27    28    1
    21    26    29    1
    22    29    30    1
    23    30    31    1
    24    31    32    2
    25     4     5    1
    26     5     6    1
    27    12    13   ar
    28    13    14   ar
    29    14    15   ar
    30    15    18    1
    31    18    19    3
    32    15    10   ar
    33     6     1    1
    34    27    22   ar
    35    31    25    1
@<TRIPOS>MOLECULE
*****
 32 35 0 0 0
SMALL
GASTEIGER

@<TRIPOS>ATOM
      1 N         138.3104  141.3866  164.2109 N.3     1  UNL1       -0.2700
      2 C         138.5054  141.4810  162.7266 C.3     1  UNL1        0.0897
      3 C         138.7388  142.8162  162.0842 C.3     1  UNL1        0.0897
      4 N         138.7772  144.0571  162.9260 N.3     1  UNL1       -0.2700
      5 C         138.5822  143.9628  164.4103 C.3     1  UNL1        0.0897
      6 C         138.3488  142.6275  165.0527 C.3     1  UNL1        0.0897
      7 C         138.0770  140.0514  164.8533 C.3     1  UNL1        0.0765
      8 C         139.2311  139.2818  165.4241 C.3     1  UNL1        0.0384
      9 C         139.3789  137.8195  165.1244 C.3     1  UNL1        0.0061
     10 C         140.9118  140.9760  168.5951 C.ar    1  UNL1        0.1479
     11 C         139.9056  140.2833  167.7245 C.ar    1  UNL1        0.0334
     12 C         140.2373  139.9744  166.2947 C.ar    1  UNL1       -0.0181
     13 C         141.5751  140.3581  165.7353 C.ar    1  UNL1       -0.0033
     14 C         142.5813  141.0508  166.6059 C.ar    1  UNL1        0.0130
     15 C         142.2496  141.3597  168.0357 C.ar    1  UNL1        0.1023
     16 C         139.8568  142.5528  170.3700 C.3     1  UNL1        0.2525
     17 O         140.5802  141.2849  170.0249 O.3     1  UNL1       -0.4708
     18 C         143.2558  142.0523  168.9062 C.1     1  UNL1        0.1035
     19 N         144.2620  142.7450  169.7768 N.1     1  UNL1       -0.1907
     20 C         139.0106  145.3923  162.2836 C.3     1  UNL1        0.0769
     21 C         140.4069  145.9201  162.1366 C.3     1  UNL1        0.0433
     22 C         141.5794  145.0297  162.4241 C.ar    1  UNL1       -0.0249
     23 C         142.1380  144.9504  163.8138 C.ar    1  UNL1       -0.0043
     24 C         143.3104  144.0600  164.1013 C.ar    1  UNL1        0.0059
     25 C         143.9243  143.2489  162.9989 C.ar    1  UNL1        0.0748
     26 C         143.3657  143.3282  161.6090 C.ar    1  UNL1        0.0233
     27 C         142.1933  144.2186  161.3216 C.ar    1  UNL1       -0.0260
     28 C         141.6346  144.2979  159.9317 C.3     1  UNL1        0.0305
     29 C         144.1739  142.4185  160.7320 C.3     1  UNL1        0.2352
     30 O         145.2320  141.7769  161.5799 O.3     1  UNL1       -0.4404
     31 C         145.0777  142.2902  162.9809 C.2     1  UNL1        0.3413
     32 O         145.9277  141.9112  164.1573 O.2     1  UNL1       -0.2449
@<TRIPOS>BOND
     1    16    17    1
     2    17    10    1
     3    10    11   ar
     4    11    12   ar
     5    12     8    1
     6     8     9    1
     7     8     7    1
     8     7     1    1
     9     1     2    1
    10     2     3    1
    11     3     4    1
    12     4    20    1
    13    20    21    1
    14    21    22    1
    15    22    23   ar
    16    23    24   ar
    17    24    25   ar
    18    25    26   ar
    19    26    27   ar
    20    27    28    1
    21    26    29    1
    22    29    30    1
    23    30    31    1
    24    31    32    2
    25     4     5    1
    26     5     6    1
    27    12    13   ar
    28    13    14   ar
    29    14    15   ar
    30    15    18    1
    31    18    19    3
    32    15    10   ar
    33     6     1    1
    34    27    22   ar
    35    31    25    1
@<TRIPOS>MOLECULE
*****
 32 35 0 0 0
SMALL
GASTEIGER

@<TRIPOS>ATOM
      1 N         140.4378  144.4299  162.6758 N.3     1  UNL1       -0.2700
      2 C         140.2409  143.5656  161.4658 C.3     1  UNL1        0.0897
      3 C         141.4302  143.0297  160.7253 C.3     1  UNL1        0.0897
      4 N         142.8164  143.3581  161.1948 N.3     1  UNL1       -0.2700
      5 C         143.0134  144.2224  162.4048 C.3     1  UNL1        0.0897
      6 C         141.8240  144.7583  163.1453 C.3     1  UNL1        0.0897
      7 C         139.2485  144.9658  163.4164 C.3     1  UNL1        0.0765
      8 C         138.8541  144.3683  164.7345 C.3     1  UNL1        0.0384
      9 C         138.5263  145.2610  165.8945 C.3     1  UNL1        0.0061
     10 C         139.5825  140.7025  166.0690 C.ar    1  UNL1        0.1479
     11 C         139.6492  142.1926  165.9110 C.ar    1  UNL1        0.0334
     12 C         138.7874  142.8781  164.8925 C.ar    1  UNL1       -0.0181
     13 C         137.8588  142.0735  164.0321 C.ar    1  UNL1       -0.0033
     14 C         137.7922  140.5833  164.1901 C.ar    1  UNL1        0.0130
     15 C         138.6540  139.8978  165.2086 C.ar    1  UNL1        0.1023
     16 C         140.0781  140.0746  168.5409 C.3     1  UNL1        0.2525
     17 O         140.4443  140.0169  167.0875 O.3     1  UNL1       -0.4708
     18 C         138.5873  138.4077  165.3666 C.1     1  UNL1        0.1035
     19 N         138.5206  136.9175  165.5246 N.1     1  UNL1       -0.1907
     20 C         144.0057  142.8222  160.4542 C.3     1  UNL1        0.0769
     21 C         144.3805  141.3756  160.5839 C.3     1  UNL1        0.0433
     22 C         144.1491  140.6540  161.8785 C.ar    1  UNL1       -0.0249
     23 C         145.0494  140.9093  163.0507 C.ar    1  UNL1       -0.0043
     24 C         144.8181  140.1877  164.3452 C.ar    1  UNL1        0.0059
     25 C         143.6864  139.2108  164.4675 C.ar    1  UNL1        0.0748
     26 C         142.7861  138.9555  163.2952 C.ar    1  UNL1        0.0233
     27 C         143.0174  139.6770  162.0007 C.ar    1  UNL1       -0.0260
     28 C         142.1171  139.4217  160.8284 C.3     1  UNL1        0.0305
     29 C         141.7594  137.9440  163.7109 C.3     1  UNL1        0.2352
     30 O         142.0252  137.5742  165.1401 O.3     1  UNL1       -0.4404
     31 C         143.2162  138.3571  165.6077 C.2     1  UNL1        0.3413
     32 O         143.8292  138.2969  166.9754 O.2     1  UNL1       -0.2449
@<TRIPOS>BOND
     1    16    17    1
     2    17    10    1
     3    10    11   ar
     4    11    12   ar
     5    12     8    1
     6     8     9    1
     7     8     7    1
     8     7     1    1
     9     1     2    1
    10     2     3    1
    11     3     4    1
    12     4    20    1
    13    20    21    1
    14    21    22    1
    15    22    23   ar
    16    23    24   ar
    17    24    25   ar
    18    25    26   ar
    19    26    27   ar
    20    27    28    1
    21    26    29    1
    22    29    30    1
    23    30    31    1
    24    31    32    2
    25     4     5    1
    26     5     6    1
    27    12    13   ar
    28    13    14   ar
    29    14    15   ar
    30    15    18    1
    31    18    19    3
    32    15    10   ar
    33     6     1    1
    34    27    22   ar
    35    31    25    1
@<TRIPOS>MOLECULE
*****
 32 35 0 0 0
SMALL
GASTEIGER

@<TRIPOS>ATOM
      1 N         142.5329  143.3731  160.7599 N.3     1  UNL1       -0.2700
      2 C         141.1688  143.1892  160.1636 C.3     1  UNL1        0.0897
      3 C         139.9765  143.8349  160.8051 C.3     1  UNL1        0.0897
      4 N         140.1483  144.6646  162.0429 N.3     1  UNL1       -0.2700
      5 C         141.5123  144.8486  162.6392 C.3     1  UNL1        0.0897
      6 C         142.7046  144.2028  161.9977 C.3     1  UNL1        0.0897
      7 C         143.7252  142.7274  160.1184 C.3     1  UNL1        0.0765
      8 C         143.9164  141.2428  160.2145 C.3     1  UNL1        0.0384
      9 C         144.0851  140.4262  158.9677 C.3     1  UNL1        0.0061
     10 C         143.0441  138.7532  163.1795 C.ar    1  UNL1        0.1479
     11 C         143.0216  139.4212  161.8366 C.ar    1  UNL1        0.0334
     12 C         143.9388  140.5748  161.5574 C.ar    1  UNL1       -0.0181
     13 C         144.8785  141.0604  162.6210 C.ar    1  UNL1       -0.0033
     14 C         144.9010  140.3924  163.9638 C.ar    1  UNL1        0.0130
     15 C         143.9838  139.2388  164.2431 C.ar    1  UNL1        0.1023
     16 C         140.7550  137.5685  162.8532 C.3     1  UNL1        0.2525
     17 O         142.1269  137.5997  163.4588 O.3     1  UNL1       -0.4708
     18 C         144.0062  138.5709  165.5860 C.1     1  UNL1        0.1035
     19 N         144.0287  137.9029  166.9288 N.1     1  UNL1       -0.1907
     20 C         138.9559  145.3103  162.6843 C.3     1  UNL1        0.0769
     21 C         138.0247  144.4930  163.5298 C.3     1  UNL1        0.0433
     22 C         138.5720  143.4301  164.4359 C.ar    1  UNL1       -0.0249
     23 C         139.5388  143.7960  165.5227 C.ar    1  UNL1       -0.0043
     24 C         140.0861  142.7332  166.4287 C.ar    1  UNL1        0.0059
     25 C         139.6665  141.3044  166.2479 C.ar    1  UNL1        0.0748
     26 C         138.6996  140.9386  165.1610 C.ar    1  UNL1        0.0233
     27 C         138.1523  142.0014  164.2550 C.ar    1  UNL1       -0.0260
     28 C         137.1855  141.6356  163.1680 C.3     1  UNL1        0.0305
     29 C         138.4709  139.4574  165.2233 C.3     1  UNL1        0.2352
     30 O         139.2965  138.9079  166.3486 O.3     1  UNL1       -0.4404
     31 C         140.0354  140.0494  166.9819 C.2     1  UNL1        0.3413
     32 O         140.9777  139.9528  168.1450 O.2     1  UNL1       -0.2449
@<TRIPOS>BOND
     1    16    17    1
     2    17    10    1
     3    10    11   ar
     4    11    12   ar
     5    12     8    1
     6     8     9    1
     7     8     7    1
     8     7     1    1
     9     1     2    1
    10     2     3    1
    11     3     4    1
    12     4    20    1
    13    20    21    1
    14    21    22    1
    15    22    23   ar
    16    23    24   ar
    17    24    25   ar
    18    25    26   ar
    19    26    27   ar
    20    27    28    1
    21    26    29    1
    22    29    30    1
    23    30    31    1
    24    31    32    2
    25     4     5    1
    26     5     6    1
    27    12    13   ar
    28    13    14   ar
    29    14    15   ar
    30    15    18    1
    31    18    19    3
    32    15    10   ar
    33     6     1    1
    34    27    22   ar
    35    31    25    1
@<TRIPOS>MOLECULE
*****
 32 35 0 0 0
SMALL
GASTEIGER

@<TRIPOS>ATOM
      1 N         141.1075  137.8238  161.5455 N.3     1  UNL1       -0.2700
      2 C         139.6130  137.9017  161.4431 C.3     1  UNL1        0.0897
      3 C         138.7773  137.9477  162.6878 C.3     1  UNL1        0.0897
      4 N         139.4360  137.9159  164.0351 N.3     1  UNL1       -0.2700
      5 C         140.9305  137.8381  164.1376 C.3     1  UNL1        0.0897
      6 C         141.7662  137.7920  162.8928 C.3     1  UNL1        0.0897
      7 C         141.9433  137.7778  160.3008 C.3     1  UNL1        0.0765
      8 C         142.1961  139.0335  159.5203 C.3     1  UNL1        0.0384
      9 C         142.0657  139.0268  158.0261 C.3     1  UNL1        0.0061
     10 C         144.2874  141.6530  161.6451 C.ar    1  UNL1        0.1479
     11 C         143.9041  140.3906  160.9313 C.ar    1  UNL1        0.0334
     12 C         142.5794  140.2959  160.2341 C.ar    1  UNL1       -0.0181
     13 C         141.6380  141.4636  160.2507 C.ar    1  UNL1       -0.0033
     14 C         142.0213  142.7259  160.9645 C.ar    1  UNL1        0.0130
     15 C         143.3460  142.8206  161.6617 C.ar    1  UNL1        0.1023
     16 C         145.7227  141.3892  163.7946 C.3     1  UNL1        0.2525
     17 O         145.6121  141.7478  162.3423 O.3     1  UNL1       -0.4708
     18 C         143.7293  144.0830  162.3755 C.1     1  UNL1        0.1035
     19 N         144.1126  145.3454  163.0893 N.1     1  UNL1       -0.1907
     20 C         138.6002  137.9620  165.2798 C.3     1  UNL1        0.0769
     21 C         138.2091  139.2834  165.8721 C.3     1  UNL1        0.0433
     22 C         138.4661  140.5513  165.1127 C.ar    1  UNL1       -0.0249
     23 C         137.5313  140.9723  164.0178 C.ar    1  UNL1       -0.0043
     24 C         137.7882  142.2400  163.2584 C.ar    1  UNL1        0.0059
     25 C         138.9800  143.0868  163.5939 C.ar    1  UNL1        0.0748
     26 C         139.9149  142.6658  164.6888 C.ar    1  UNL1        0.0233
     27 C         139.6579  141.3981  165.4482 C.ar    1  UNL1       -0.0260
     28 C         140.5928  140.9770  166.5432 C.3     1  UNL1        0.0305
     29 C         140.9993  143.6968  164.7945 C.3     1  UNL1        0.2352
     30 O         140.7346  144.7550  163.7648 O.3     1  UNL1       -0.4404
     31 C         139.4867  144.3780  163.0228 C.2     1  UNL1        0.3413
     32 O         138.8561  145.1557  161.9059 O.2     1  UNL1       -0.2449
@<TRIPOS>BOND
     1    16    17    1
     2    17    10    1
     3    10    11   ar
     4    11    12   ar
     5    12     8    1
     6     8     9    1
     7     8     7    1
     8     7     1    1
     9     1     2    1
    10     2     3    1
    11     3     4    1
    12     4    20    1
    13    20    21    1
    14    21    22    1
    15    22    23   ar
    16    23    24   ar
    17    24    25   ar
    18    25    26   ar
    19    26    27   ar
    20    27    28    1
    21    26    29    1
    22    29    30    1
    23    30    31    1
    24    31    32    2
    25     4     5    1
    26     5     6    1
    27    12    13   ar
    28    13    14   ar
    29    14    15   ar
    30    15    18    1
    31    18    19    3
    32    15    10   ar
    33     6     1    1
    34    27    22   ar
    35    31    25    1
