@<TRIPOS>MOLECULE
*****
 28 31 0 0 0
SMALL
GASTEIGER

@<TRIPOS>ATOM
      1 C         141.8110  143.3576  162.5767 C.ar    1  UNL1        0.0824
      2 C         142.9896  143.8577  163.3581 C.ar    1  UNL1        0.0192
      3 C         143.4071  143.1565  164.6167 C.ar    1  UNL1        0.0030
      4 C         142.6460  141.9553  165.0938 C.ar    1  UNL1        0.0174
      5 C         143.0635  141.2541  166.3524 C.ar    1  UNL1       -0.0027
      6 C         142.3023  140.0528  166.8296 C.ar    1  UNL1       -0.0207
      7 C         141.1236  139.5528  166.0481 C.ar    1  UNL1       -0.0027
      8 C         140.7062  140.2540  164.7895 C.ar    1  UNL1        0.0188
      9 C         141.4673  141.4552  164.3124 C.ar    1  UNL1        0.0812
     10 N         141.0498  142.1564  163.0538 N.ar    1  UNL1       -0.2453
     11 C         140.1410  146.1622  157.5423 C.3     1  UNL1        0.0528
     12 C         140.5585  145.4611  158.8008 C.ar    1  UNL1        0.0685
     13 N         139.8915  145.7954  160.1022 N.ar    1  UNL1       -0.2532
     14 C         140.3090  145.0942  161.3608 C.ar    1  UNL1        0.0604
     15 C         139.6421  145.4285  162.6621 C.3     1  UNL1        0.0521
     16 C         141.3935  144.0588  161.3181 C.ar    1  UNL1        0.0319
     17 C         142.0604  143.7245  160.0167 C.ar    1  UNL1        0.0141
     18 C         141.6429  144.4256  158.7582 C.ar    1  UNL1        0.0820
     19 C         142.3099  144.0913  157.4568 C.1     1  UNL1        0.1016
     20 N         142.9768  143.7570  156.1555 N.1     1  UNL1       -0.1908
     21 C         142.7198  139.3517  168.0881 C.3     1  UNL1        0.0437
     22 C         142.0773  139.7107  169.3952 C.3     1  UNL1        0.0768
     23 N         141.5585  141.1002  169.6192 N.3     1  UNL1       -0.2737
     24 C         140.1150  141.5045  169.6725 C.3     1  UNL1        0.0721
     25 C         140.0565  142.9835  169.9156 C.3     1  UNL1        0.0187
     26 C         141.4640  143.4933  170.0125 C.3     1  UNL1        0.0174
     27 C         142.3922  142.3293  169.8293 C.3     1  UNL1        0.0576
     28 C         143.8910  142.3848  169.8523 C.3     1  UNL1        0.0173
@<TRIPOS>BOND
     1    11    12    1
     2    12    13   ar
     3    13    14   ar
     4    14    15    1
     5    14    16   ar
     6    16     1    1
     7     1     2   ar
     8     2     3   ar
     9     3     4   ar
    10     4     5   ar
    11     5     6   ar
    12     6    21    1
    13    21    22    1
    14    22    23    1
    15    23    24    1
    16    24    25    1
    17    25    26    1
    18    26    27    1
    19    27    28    1
    20     6     7   ar
    21     7     8   ar
    22     8     9   ar
    23     9    10   ar
    24    16    17   ar
    25    17    18   ar
    26    18    19    1
    27    19    20    3
    28    18    12   ar
    29    10     1   ar
    30     9     4   ar
    31    27    23    1
@<TRIPOS>MOLECULE
*****
 28 31 0 0 0
SMALL
GASTEIGER

@<TRIPOS>ATOM
      1 C         141.2822  138.3494  159.6293 C.ar    1  UNL1        0.0824
      2 C         139.8131  138.6352  159.5293 C.ar    1  UNL1        0.0192
      3 C         138.9456  138.5388  160.7491 C.ar    1  UNL1        0.0030
      4 C         139.5472  138.1567  162.0690 C.ar    1  UNL1        0.0174
      5 C         138.6796  138.0603  163.2889 C.ar    1  UNL1       -0.0027
      6 C         139.2812  137.6781  164.6087 C.ar    1  UNL1       -0.0207
      7 C         140.7504  137.3924  164.7087 C.ar    1  UNL1       -0.0027
      8 C         141.6179  137.4887  163.4889 C.ar    1  UNL1        0.0188
      9 C         141.0163  137.8709  162.1690 C.ar    1  UNL1        0.0812
     10 N         141.8838  137.9673  160.9492 N.ar    1  UNL1       -0.2453
     11 C         144.7525  138.7348  154.7498 C.3     1  UNL1        0.0528
     12 C         143.8850  138.6385  155.9697 C.ar    1  UNL1        0.0685
     13 N         144.0193  139.6518  157.0674 N.ar    1  UNL1       -0.2532
     14 C         143.1517  139.5555  158.2873 C.ar    1  UNL1        0.0604
     15 C         143.2860  140.5688  159.3851 C.3     1  UNL1        0.0521
     16 C         142.1498  138.4458  158.4094 C.ar    1  UNL1        0.0319
     17 C         142.0155  137.4325  157.3116 C.ar    1  UNL1        0.0141
     18 C         142.8831  137.5288  156.0918 C.ar    1  UNL1        0.0820
     19 C         142.7488  136.5155  154.9940 C.1     1  UNL1        0.1016
     20 N         142.6145  135.5022  153.8962 N.1     1  UNL1       -0.1908
     21 C         138.4137  137.5818  165.8286 C.3     1  UNL1        0.0437
     22 C         138.0386  138.8233  166.5822 C.3     1  UNL1        0.0768
     23 N         139.0257  139.9444  166.7194 N.3     1  UNL1       -0.2737
     24 C         140.0690  140.0746  167.7893 C.3     1  UNL1        0.0721
     25 C         140.8309  141.3427  167.5419 C.3     1  UNL1        0.0187
     26 C         140.2585  141.9963  166.3191 C.3     1  UNL1        0.0174
     27 C         139.1428  141.1321  165.8108 C.3     1  UNL1        0.0576
     28 C         138.2935  141.4073  164.6055 C.3     1  UNL1        0.0173
@<TRIPOS>BOND
     1    11    12    1
     2    12    13   ar
     3    13    14   ar
     4    14    15    1
     5    14    16   ar
     6    16     1    1
     7     1     2   ar
     8     2     3   ar
     9     3     4   ar
    10     4     5   ar
    11     5     6   ar
    12     6    21    1
    13    21    22    1
    14    22    23    1
    15    23    24    1
    16    24    25    1
    17    25    26    1
    18    26    27    1
    19    27    28    1
    20     6     7   ar
    21     7     8   ar
    22     8     9   ar
    23     9    10   ar
    24    16    17   ar
    25    17    18   ar
    26    18    19    1
    27    19    20    3
    28    18    12   ar
    29    10     1   ar
    30     9     4   ar
    31    27    23    1
@<TRIPOS>MOLECULE
*****
 28 31 0 0 0
SMALL
GASTEIGER

@<TRIPOS>ATOM
      1 C         140.6995  138.5991  162.0724 C.ar    1  UNL1        0.0824
      2 C         139.8947  137.4994  162.6992 C.ar    1  UNL1        0.0192
      3 C         139.4589  137.6110  164.1302 C.ar    1  UNL1        0.0030
      4 C         139.8280  138.8223  164.9343 C.ar    1  UNL1        0.0174
      5 C         139.3921  138.9339  166.3653 C.ar    1  UNL1       -0.0027
      6 C         139.7612  140.1451  167.1694 C.ar    1  UNL1       -0.0207
      7 C         140.5661  141.2448  166.5425 C.ar    1  UNL1       -0.0027
      8 C         141.0019  141.1332  165.1116 C.ar    1  UNL1        0.0188
      9 C         140.6328  139.9220  164.3075 C.ar    1  UNL1        0.0812
     10 N         141.0686  139.8104  162.8766 N.ar    1  UNL1       -0.2453
     11 C         142.4427  138.1528  156.3486 C.3     1  UNL1        0.0528
     12 C         142.0070  138.2644  157.7795 C.ar    1  UNL1        0.0685
     13 N         143.0030  138.0703  158.8842 N.ar    1  UNL1       -0.2532
     14 C         142.5672  138.1819  160.3152 C.ar    1  UNL1        0.0604
     15 C         143.5632  137.9879  161.4198 C.3     1  UNL1        0.0521
     16 C         141.1354  138.4875  160.6414 C.ar    1  UNL1        0.0319
     17 C         140.1393  138.6816  159.5368 C.ar    1  UNL1        0.0141
     18 C         140.5751  138.5700  158.1059 C.ar    1  UNL1        0.0820
     19 C         139.5791  138.7641  157.0012 C.1     1  UNL1        0.1016
     20 N         138.5830  138.9581  155.8966 N.1     1  UNL1       -0.1908
     21 C         139.3254  140.2568  168.6003 C.3     1  UNL1        0.0437
     22 C         140.3282  140.0971  169.7044 C.3     1  UNL1        0.0768
     23 N         141.4477  141.0849  169.8495 N.3     1  UNL1       -0.2737
     24 C         142.9105  140.7879  169.7010 C.3     1  UNL1        0.0721
     25 C         143.6677  142.0626  169.9282 C.3     1  UNL1        0.0187
     26 C         142.6729  143.1475  170.2171 C.3     1  UNL1        0.0174
     27 C         141.3009  142.5432  170.1685 C.3     1  UNL1        0.0576
     28 C         140.0089  143.2698  170.3984 C.3     1  UNL1        0.0173
@<TRIPOS>BOND
     1    11    12    1
     2    12    13   ar
     3    13    14   ar
     4    14    15    1
     5    14    16   ar
     6    16     1    1
     7     1     2   ar
     8     2     3   ar
     9     3     4   ar
    10     4     5   ar
    11     5     6   ar
    12     6    21    1
    13    21    22    1
    14    22    23    1
    15    23    24    1
    16    24    25    1
    17    25    26    1
    18    26    27    1
    19    27    28    1
    20     6     7   ar
    21     7     8   ar
    22     8     9   ar
    23     9    10   ar
    24    16    17   ar
    25    17    18   ar
    26    18    19    1
    27    19    20    3
    28    18    12   ar
    29    10     1   ar
    30     9     4   ar
    31    27    23    1
@<TRIPOS>MOLECULE
*****
 28 31 0 0 0
SMALL
GASTEIGER

@<TRIPOS>ATOM
      1 C         140.2614  143.1208  164.9460 C.ar    1  UNL1        0.0824
      2 C         139.3197  144.2710  164.7458 C.ar    1  UNL1        0.0192
      3 C         139.3186  145.0221  163.4474 C.ar    1  UNL1        0.0030
      4 C         140.2591  144.6228  162.3492 C.ar    1  UNL1        0.0174
      5 C         140.2579  145.3740  161.0507 C.ar    1  UNL1       -0.0027
      6 C         141.1984  144.9747  159.9525 C.ar    1  UNL1       -0.0207
      7 C         142.1400  143.8243  160.1527 C.ar    1  UNL1       -0.0027
      8 C         142.1412  143.0733  161.4511 C.ar    1  UNL1        0.0188
      9 C         141.2007  143.4725  162.5493 C.ar    1  UNL1        0.0812
     10 N         141.2018  142.7215  163.8477 N.ar    1  UNL1       -0.2453
     11 C         140.2661  140.1164  170.1397 C.3     1  UNL1        0.0528
     12 C         140.2649  140.8675  168.8413 C.ar    1  UNL1        0.0685
     13 N         139.5185  140.3220  167.6600 N.ar    1  UNL1       -0.2532
     14 C         139.5173  141.0732  166.3616 C.ar    1  UNL1        0.0604
     15 C         138.7709  140.5277  165.1803 C.3     1  UNL1        0.0521
     16 C         140.2625  142.3696  166.2444 C.ar    1  UNL1        0.0319
     17 C         141.0090  142.9151  167.4257 C.ar    1  UNL1        0.0141
     18 C         141.0102  142.1640  168.7241 C.ar    1  UNL1        0.0820
     19 C         141.7566  142.7095  169.9053 C.1     1  UNL1        0.1016
     20 N         142.5030  143.2549  171.0866 N.1     1  UNL1       -0.1908
     21 C         141.1972  145.7257  158.6541 C.3     1  UNL1        0.0437
     22 C         140.1318  145.4567  157.6329 C.3     1  UNL1        0.0768
     23 N         139.9931  146.3545  156.4394 N.3     1  UNL1       -0.2737
     24 C         139.0583  147.5213  156.3177 C.3     1  UNL1        0.0721
     25 C         139.2523  148.1312  154.9610 C.3     1  UNL1        0.0187
     26 C         140.3070  147.3412  154.2443 C.3     1  UNL1        0.0174
     27 C         140.7648  146.2432  155.1580 C.3     1  UNL1        0.0576
     28 C         141.8107  145.2146  154.8451 C.3     1  UNL1        0.0173
@<TRIPOS>BOND
     1    11    12    1
     2    12    13   ar
     3    13    14   ar
     4    14    15    1
     5    14    16   ar
     6    16     1    1
     7     1     2   ar
     8     2     3   ar
     9     3     4   ar
    10     4     5   ar
    11     5     6   ar
    12     6    21    1
    13    21    22    1
    14    22    23    1
    15    23    24    1
    16    24    25    1
    17    25    26    1
    18    26    27    1
    19    27    28    1
    20     6     7   ar
    21     7     8   ar
    22     8     9   ar
    23     9    10   ar
    24    16    17   ar
    25    17    18   ar
    26    18    19    1
    27    19    20    3
    28    18    12   ar
    29    10     1   ar
    30     9     4   ar
    31    27    23    1
@<TRIPOS>MOLECULE
*****
 28 31 0 0 0
SMALL
GASTEIGER

@<TRIPOS>ATOM
      1 C         139.5306  140.2032  163.5716 C.ar    1  UNL1        0.0824
      2 C         138.5252  140.4508  164.6569 C.ar    1  UNL1        0.0192
      3 C         138.9104  140.2592  166.0939 C.ar    1  UNL1        0.0030
      4 C         140.3008  139.8199  166.4455 C.ar    1  UNL1        0.0174
      5 C         140.6859  139.6283  167.8826 C.ar    1  UNL1       -0.0027
      6 C         142.0764  139.1890  168.2342 C.ar    1  UNL1       -0.0207
      7 C         143.0818  138.9414  167.1488 C.ar    1  UNL1       -0.0027
      8 C         142.6966  139.1330  165.7119 C.ar    1  UNL1        0.0188
      9 C         141.3062  139.5723  165.3602 C.ar    1  UNL1        0.0812
     10 N         140.9210  139.7639  163.9233 N.ar    1  UNL1       -0.2453
     11 C         137.9902  140.9698  157.8236 C.3     1  UNL1        0.0528
     12 C         138.3753  140.7781  159.2605 C.ar    1  UNL1        0.0685
     13 N         138.0763  139.4802  159.9504 N.ar    1  UNL1       -0.2532
     14 C         138.4614  139.2885  161.3875 C.ar    1  UNL1        0.0604
     15 C         138.1624  137.9906  162.0774 C.3     1  UNL1        0.0521
     16 C         139.1454  140.3948  162.1346 C.ar    1  UNL1        0.0319
     17 C         139.4444  141.6928  161.4447 C.ar    1  UNL1        0.0141
     18 C         139.0594  141.8844  160.0077 C.ar    1  UNL1        0.0820
     19 C         139.3584  143.1824  159.3178 C.1     1  UNL1        0.1016
     20 N         139.6574  144.4803  158.6279 N.1     1  UNL1       -0.1908
     21 C         142.4615  138.9974  169.6712 C.3     1  UNL1        0.0437
     22 C         142.6220  140.1877  170.5699 C.3     1  UNL1        0.0768
     23 N         141.7768  141.4083  170.3559 N.3     1  UNL1       -0.2737
     24 C         140.5100  141.7426  171.0863 C.3     1  UNL1        0.0721
     25 C         140.0003  143.0498  170.5559 C.3     1  UNL1        0.0187
     26 C         140.9521  143.5234  169.4976 C.3     1  UNL1        0.0174
     27 C         142.0500  142.5088  169.3741 C.3     1  UNL1        0.0576
     28 C         143.2164  142.5820  168.4337 C.3     1  UNL1        0.0173
@<TRIPOS>BOND
     1    11    12    1
     2    12    13   ar
     3    13    14   ar
     4    14    15    1
     5    14    16   ar
     6    16     1    1
     7     1     2   ar
     8     2     3   ar
     9     3     4   ar
    10     4     5   ar
    11     5     6   ar
    12     6    21    1
    13    21    22    1
    14    22    23    1
    15    23    24    1
    16    24    25    1
    17    25    26    1
    18    26    27    1
    19    27    28    1
    20     6     7   ar
    21     7     8   ar
    22     8     9   ar
    23     9    10   ar
    24    16    17   ar
    25    17    18   ar
    26    18    19    1
    27    19    20    3
    28    18    12   ar
    29    10     1   ar
    30     9     4   ar
    31    27    23    1
@<TRIPOS>MOLECULE
*****
 28 31 0 0 0
SMALL
GASTEIGER

@<TRIPOS>ATOM
      1 C         139.5360  140.7435  163.1403 C.ar    1  UNL1        0.0824
      2 C         138.5605  139.9970  164.0011 C.ar    1  UNL1        0.0192
      3 C         138.9693  139.5310  165.3670 C.ar    1  UNL1        0.0030
      4 C         140.3536  139.8114  165.8720 C.ar    1  UNL1        0.0174
      5 C         140.7623  139.3453  167.2380 C.ar    1  UNL1       -0.0027
      6 C         142.1466  139.6257  167.7431 C.ar    1  UNL1       -0.0207
      7 C         143.1221  140.3723  166.8822 C.ar    1  UNL1       -0.0027
      8 C         142.7134  140.8384  165.5163 C.ar    1  UNL1        0.0188
      9 C         141.3291  140.5579  165.0112 C.ar    1  UNL1        0.0812
     10 N         140.9203  141.0240  163.6454 N.ar    1  UNL1       -0.2453
     11 C         137.9011  142.6079  157.6766 C.3     1  UNL1        0.0528
     12 C         138.3098  142.1418  159.0425 C.ar    1  UNL1        0.0685
     13 N         138.1916  143.0671  160.2172 N.ar    1  UNL1       -0.2532
     14 C         138.6004  142.6010  161.5832 C.ar    1  UNL1        0.0604
     15 C         138.4822  143.5262  162.7579 C.3     1  UNL1        0.0521
     16 C         139.1273  141.2097  161.7744 C.ar    1  UNL1        0.0319
     17 C         139.2455  140.2844  160.5996 C.ar    1  UNL1        0.0141
     18 C         138.8368  140.7505  159.2338 C.ar    1  UNL1        0.0820
     19 C         138.9550  139.8252  158.0590 C.1     1  UNL1        0.1016
     20 N         139.0732  138.9000  156.8843 N.1     1  UNL1       -0.1908
     21 C         142.5554  139.1596  169.1089 C.3     1  UNL1        0.0437
     22 C         142.1184  139.9232  170.3239 C.3     1  UNL1        0.0768
     23 N         141.5446  141.3013  170.1775 N.3     1  UNL1       -0.2737
     24 C         142.3268  142.5795  170.1107 C.3     1  UNL1        0.0721
     25 C         141.3535  143.7114  169.9640 C.3     1  UNL1        0.0187
     26 C         139.9698  143.1327  169.9401 C.3     1  UNL1        0.0174
     27 C         140.0879  141.6432  170.0721 C.3     1  UNL1        0.0576
     28 C         138.9492  140.6671  170.0946 C.3     1  UNL1        0.0173
@<TRIPOS>BOND
     1    11    12    1
     2    12    13   ar
     3    13    14   ar
     4    14    15    1
     5    14    16   ar
     6    16     1    1
     7     1     2   ar
     8     2     3   ar
     9     3     4   ar
    10     4     5   ar
    11     5     6   ar
    12     6    21    1
    13    21    22    1
    14    22    23    1
    15    23    24    1
    16    24    25    1
    17    25    26    1
    18    26    27    1
    19    27    28    1
    20     6     7   ar
    21     7     8   ar
    22     8     9   ar
    23     9    10   ar
    24    16    17   ar
    25    17    18   ar
    26    18    19    1
    27    19    20    3
    28    18    12   ar
    29    10     1   ar
    30     9     4   ar
    31    27    23    1
@<TRIPOS>MOLECULE
*****
 28 31 0 0 0
SMALL
GASTEIGER

@<TRIPOS>ATOM
      1 C         139.3475  141.3694  165.0350 C.ar    1  UNL1        0.0824
      2 C         138.1499  142.1683  164.6137 C.ar    1  UNL1        0.0192
      3 C         137.9028  142.4389  163.1592 C.ar    1  UNL1        0.0030
      4 C         138.8532  141.9106  162.1259 C.ar    1  UNL1        0.0174
      5 C         138.6060  142.1812  160.6714 C.ar    1  UNL1       -0.0027
      6 C         139.5564  141.6529  159.6381 C.ar    1  UNL1       -0.0207
      7 C         140.7540  140.8540  160.0595 C.ar    1  UNL1       -0.0027
      8 C         141.0012  140.5834  161.5140 C.ar    1  UNL1        0.0188
      9 C         140.0507  141.1117  162.5472 C.ar    1  UNL1        0.0812
     10 N         140.2979  140.8411  164.0017 N.ar    1  UNL1       -0.2453
     11 C         140.3362  140.2869  170.8531 C.3     1  UNL1        0.0528
     12 C         140.0890  140.5575  169.3986 C.ar    1  UNL1        0.0685
     13 N         139.2387  139.6188  168.5951 N.ar    1  UNL1       -0.2532
     14 C         138.9915  139.8894  167.1405 C.ar    1  UNL1        0.0604
     15 C         138.1411  138.9508  166.3369 C.3     1  UNL1        0.0521
     16 C         139.5946  141.0987  166.4895 C.ar    1  UNL1        0.0319
     17 C         140.4450  142.0374  167.2931 C.ar    1  UNL1        0.0141
     18 C         140.6922  141.7668  168.7476 C.ar    1  UNL1        0.0820
     19 C         141.5426  142.7055  169.5512 C.1     1  UNL1        0.1016
     20 N         142.3930  143.6442  170.3547 N.1     1  UNL1       -0.1908
     21 C         139.3093  141.9235  158.1836 C.3     1  UNL1        0.0437
     22 C         139.0531  143.3251  157.7144 C.3     1  UNL1        0.0768
     23 N         140.2047  144.2449  157.4354 N.3     1  UNL1       -0.2737
     24 C         140.8962  144.4165  156.1155 C.3     1  UNL1        0.0721
     25 C         141.9858  145.4323  156.2916 C.3     1  UNL1        0.0187
     26 C         141.9676  145.8884  157.7205 C.3     1  UNL1        0.0174
     27 C         140.8668  145.1545  158.4274 C.3     1  UNL1        0.0576
     28 C         140.4937  145.3041  159.8725 C.3     1  UNL1        0.0173
@<TRIPOS>BOND
     1    11    12    1
     2    12    13   ar
     3    13    14   ar
     4    14    15    1
     5    14    16   ar
     6    16     1    1
     7     1     2   ar
     8     2     3   ar
     9     3     4   ar
    10     4     5   ar
    11     5     6   ar
    12     6    21    1
    13    21    22    1
    14    22    23    1
    15    23    24    1
    16    24    25    1
    17    25    26    1
    18    26    27    1
    19    27    28    1
    20     6     7   ar
    21     7     8   ar
    22     8     9   ar
    23     9    10   ar
    24    16    17   ar
    25    17    18   ar
    26    18    19    1
    27    19    20    3
    28    18    12   ar
    29    10     1   ar
    30     9     4   ar
    31    27    23    1
@<TRIPOS>MOLECULE
*****
 28 31 0 0 0
SMALL
GASTEIGER

@<TRIPOS>ATOM
      1 C         142.5229  138.2905  159.9250 C.ar    1  UNL1        0.0824
      2 C         143.7536  139.0781  160.2641 C.ar    1  UNL1        0.0192
      3 C         144.1229  139.3115  161.6990 C.ar    1  UNL1        0.0030
      4 C         143.2615  138.7573  162.7948 C.ar    1  UNL1        0.0174
      5 C         143.6308  138.9907  164.2299 C.ar    1  UNL1       -0.0027
      6 C         142.7694  138.4365  165.3257 C.ar    1  UNL1       -0.0207
      7 C         141.5387  137.6489  164.9865 C.ar    1  UNL1       -0.0027
      8 C         141.1694  137.4155  163.5516 C.ar    1  UNL1        0.0188
      9 C         142.0308  137.9697  162.4557 C.ar    1  UNL1        0.0812
     10 N         141.6615  137.7363  161.0208 N.ar    1  UNL1       -0.2453
     11 C         141.0456  137.3567  154.1851 C.3     1  UNL1        0.0528
     12 C         141.4149  137.5902  155.6200 C.ar    1  UNL1        0.0685
     13 N         140.9327  138.8217  156.3278 N.ar    1  UNL1       -0.2532
     14 C         141.3020  139.0551  157.7628 C.ar    1  UNL1        0.0604
     15 C         140.8198  140.2866  158.4705 C.3     1  UNL1        0.0521
     16 C         142.1536  138.0571  158.4900 C.ar    1  UNL1        0.0319
     17 C         142.6358  136.8256  157.7822 C.ar    1  UNL1        0.0141
     18 C         142.2665  136.5921  156.3473 C.ar    1  UNL1        0.0820
     19 C         142.7487  135.3607  155.6395 C.1     1  UNL1        0.1016
     20 N         143.2310  134.1292  154.9318 N.1     1  UNL1       -0.1908
     21 C         143.1387  138.6699  166.7606 C.3     1  UNL1        0.0437
     22 C         142.7840  139.9673  167.4249 C.3     1  UNL1        0.0768
     23 N         141.6151  140.0347  168.3626 N.3     1  UNL1       -0.2737
     24 C         141.6679  139.8599  169.8515 C.3     1  UNL1        0.0721
     25 C         140.2737  140.0060  170.3851 C.3     1  UNL1        0.0187
     26 C         139.3592  140.2711  169.2260 C.3     1  UNL1        0.0174
     27 C         140.1883  140.2888  167.9760 C.3     1  UNL1        0.0576
     28 C         139.6797  140.5201  166.5840 C.3     1  UNL1        0.0173
@<TRIPOS>BOND
     1    11    12    1
     2    12    13   ar
     3    13    14   ar
     4    14    15    1
     5    14    16   ar
     6    16     1    1
     7     1     2   ar
     8     2     3   ar
     9     3     4   ar
    10     4     5   ar
    11     5     6   ar
    12     6    21    1
    13    21    22    1
    14    22    23    1
    15    23    24    1
    16    24    25    1
    17    25    26    1
    18    26    27    1
    19    27    28    1
    20     6     7   ar
    21     7     8   ar
    22     8     9   ar
    23     9    10   ar
    24    16    17   ar
    25    17    18   ar
    26    18    19    1
    27    19    20    3
    28    18    12   ar
    29    10     1   ar
    30     9     4   ar
    31    27    23    1
@<TRIPOS>MOLECULE
*****
 28 31 0 0 0
SMALL
GASTEIGER

@<TRIPOS>ATOM
      1 C         141.1062  142.7529  162.4978 C.ar    1  UNL1        0.0824
      2 C         141.0209  143.8570  163.5095 C.ar    1  UNL1        0.0192
      3 C         140.6651  143.5443  164.9327 C.ar    1  UNL1        0.0030
      4 C         140.3945  142.1274  165.3442 C.ar    1  UNL1        0.0174
      5 C         140.0386  141.8147  166.7674 C.ar    1  UNL1       -0.0027
      6 C         139.7681  140.3978  167.1789 C.ar    1  UNL1       -0.0207
      7 C         139.8534  139.2937  166.1671 C.ar    1  UNL1       -0.0027
      8 C         140.2093  139.6064  164.7439 C.ar    1  UNL1        0.0188
      9 C         140.4798  141.0233  164.3324 C.ar    1  UNL1        0.0812
     10 N         140.8357  141.3361  162.9093 N.ar    1  UNL1       -0.2453
     11 C         142.5296  144.0038  156.8049 C.3     1  UNL1        0.0528
     12 C         142.1738  143.6911  158.2281 C.ar    1  UNL1        0.0685
     13 N         143.2515  143.5955  159.2670 N.ar    1  UNL1       -0.2532
     14 C         142.8957  143.2827  160.6902 C.ar    1  UNL1        0.0604
     15 C         143.9734  143.1871  161.7291 C.3     1  UNL1        0.0521
     16 C         141.4621  143.0657  161.0745 C.ar    1  UNL1        0.0319
     17 C         140.3844  143.1613  160.0356 C.ar    1  UNL1        0.0141
     18 C         140.7402  143.4740  158.6124 C.ar    1  UNL1        0.0820
     19 C         139.6624  143.5697  157.5735 C.1     1  UNL1        0.1016
     20 N         138.5847  143.6654  156.5347 N.1     1  UNL1       -0.1908
     21 C         139.4122  140.0850  168.6021 C.3     1  UNL1        0.0437
     22 C         140.4934  139.9491  169.6330 C.3     1  UNL1        0.0768
     23 N         141.5220  141.0298  169.7881 N.3     1  UNL1       -0.2737
     24 C         142.9935  140.8896  169.5327 C.3     1  UNL1        0.0721
     25 C         143.6407  142.2135  169.8125 C.3     1  UNL1        0.0187
     26 C         142.5692  143.1720  170.2408 C.3     1  UNL1        0.0174
     27 C         141.2598  142.4403  170.2257 C.3     1  UNL1        0.0576
     28 C         139.9229  143.0179  170.5851 C.3     1  UNL1        0.0173
@<TRIPOS>BOND
     1    11    12    1
     2    12    13   ar
     3    13    14   ar
     4    14    15    1
     5    14    16   ar
     6    16     1    1
     7     1     2   ar
     8     2     3   ar
     9     3     4   ar
    10     4     5   ar
    11     5     6   ar
    12     6    21    1
    13    21    22    1
    14    22    23    1
    15    23    24    1
    16    24    25    1
    17    25    26    1
    18    26    27    1
    19    27    28    1
    20     6     7   ar
    21     7     8   ar
    22     8     9   ar
    23     9    10   ar
    24    16    17   ar
    25    17    18   ar
    26    18    19    1
    27    19    20    3
    28    18    12   ar
    29    10     1   ar
    30     9     4   ar
    31    27    23    1
