@<TRIPOS>MOLECULE
*****
 30 34 0 0 0
SMALL
GASTEIGER

@<TRIPOS>ATOM
      1 N         140.6431  141.7226  167.7725 N.ar    1  UNL1       -0.2340
      2 N         140.8892  142.7689  166.7262 N.ar    1  UNL1       -0.1679
      3 C         140.0617  142.4252  165.5233 C.ar    1  UNL1        0.1065
      4 C         139.3040  141.1665  165.8262 C.ar    1  UNL1        0.0860
      5 C         138.3334  140.3597  165.0157 C.ar    1  UNL1        0.1316
      6 N         137.9741  140.7939  163.6257 N.pl3   1  UNL1       -0.3425
      7 N         137.7221  139.1186  165.5954 N.ar    1  UNL1       -0.2093
      8 C         138.0814  138.6843  166.9854 C.ar    1  UNL1        0.2014
      9 N         139.0521  139.4912  167.7958 N.ar    1  UNL1       -0.2050
     10 C         139.6634  140.7323  167.2162 C.ar    1  UNL1        0.1653
     11 H         138.3753  141.6085  163.2452 H       1  UNL1        0.1437
     12 H         137.3370  140.2644  163.0937 H       1  UNL1        0.1437
     13 C         140.0021  143.2036  164.2424 C.ar    1  UNL1        0.0196
     14 C         138.9794  144.2872  164.0701 C.ar    1  UNL1        0.0031
     15 C         138.9199  145.0655  162.7892 C.ar    1  UNL1        0.0193
     16 C         139.8831  144.7602  161.6807 C.ar    1  UNL1        0.0844
     17 N         139.8236  145.5385  160.3997 N.ar    1  UNL1       -0.2117
     18 C         140.7868  145.2332  159.2911 C.ar    1  UNL1        0.2247
     19 C         141.8096  144.1495  159.4635 C.ar    1  UNL1        0.0577
     20 C         141.8691  143.3712  160.7443 C.ar    1  UNL1        0.0063
     21 C         140.9058  143.6765  161.8529 C.ar    1  UNL1        0.0180
     22 C         140.9653  142.8982  163.1338 C.ar    1  UNL1        0.0031
     23 O         140.7273  146.0115  158.0103 O.3     1  UNL1       -0.4640
     24 C         139.9177  145.4970  156.8570 C.3     1  UNL1        0.1678
     25 C         139.1951  145.7417  155.5654 C.3     1  UNL1        0.0473
     26 C         139.2382  144.3614  156.1510 C.3     1  UNL1        0.0473
     27 C         141.2671  141.6750  169.1357 C.3     1  UNL1        0.1290
     28 C         140.4981  144.0047  169.9910 C.3     1  UNL1        0.0021
     29 C         141.5571  142.9489  169.8727 C.3     1  UNL1        0.0245
     30 C         142.9060  143.1670  170.4914 C.3     1  UNL1        0.0021
@<TRIPOS>BOND
     1    28    29    1
     2    29    30    1
     3    29    27    1
     4    27     1    1
     5     1     2   ar
     6     2     3   ar
     7     3    13    1
     8    13    14   ar
     9    14    15   ar
    10    15    16   ar
    11    16    17   ar
    12    17    18   ar
    13    18    23    1
    14    23    24    1
    15    24    25    1
    16    25    26    1
    17    18    19   ar
    18    19    20   ar
    19    20    21   ar
    20    21    22   ar
    21     3     4   ar
    22     4     5   ar
    23     5     6    1
    24     5     7   ar
    25     7     8   ar
    26     8     9   ar
    27     9    10   ar
    28    10     1   ar
    29    22    13   ar
    30    10     4   ar
    31    21    16   ar
    32    26    24    1
    33     6    11    1
    34     6    12    1
@<TRIPOS>MOLECULE
*****
 30 34 0 0 0
SMALL
GASTEIGER

@<TRIPOS>ATOM
      1 N         140.8945  141.3338  168.1378 N.ar    1  UNL1       -0.2340
      2 N         141.5547  142.1373  167.0569 N.ar    1  UNL1       -0.1679
      3 C         140.8934  141.7947  165.7549 C.ar    1  UNL1        0.1065
      4 C         139.8244  140.7792  166.0311 C.ar    1  UNL1        0.0860
      5 C         138.8505  140.0772  165.1318 C.ar    1  UNL1        0.1316
      6 N         138.8499  140.3621  163.6591 N.pl3   1  UNL1       -0.3425
      7 N         137.8773  139.0903  165.7052 N.ar    1  UNL1       -0.2093
      8 C         137.8779  138.8054  167.1779 C.ar    1  UNL1        0.2014
      9 N         138.8519  139.5075  168.0772 N.ar    1  UNL1       -0.2050
     10 C         139.8250  140.4944  167.5038 C.ar    1  UNL1        0.1653
     11 H         139.4887  141.0098  163.2828 H       1  UNL1        0.1437
     12 H         138.2107  139.9013  163.0689 H       1  UNL1        0.1437
     13 C         141.2401  142.3669  164.4123 C.ar    1  UNL1        0.0196
     14 C         142.4375  141.8572  163.6663 C.ar    1  UNL1        0.0031
     15 C         142.7842  142.4294  162.3239 C.ar    1  UNL1        0.0193
     16 C         141.9335  143.5114  161.7274 C.ar    1  UNL1        0.0844
     17 N         142.2803  144.0836  160.3848 N.ar    1  UNL1       -0.2117
     18 C         141.4297  145.1656  159.7883 C.ar    1  UNL1        0.2247
     19 C         140.2323  145.6753  160.5344 C.ar    1  UNL1        0.0577
     20 C         139.8856  145.1031  161.8769 C.ar    1  UNL1        0.0063
     21 C         140.7362  144.0211  162.4734 C.ar    1  UNL1        0.0180
     22 C         140.3895  143.4489  163.8159 C.ar    1  UNL1        0.0031
     23 O         141.7764  145.7378  158.4459 O.3     1  UNL1       -0.4640
     24 C         140.7031  145.9434  157.4183 C.3     1  UNL1        0.1678
     25 C         139.6749  146.8238  156.7720 C.3     1  UNL1        0.0473
     26 C         139.8724  145.4190  156.2848 C.3     1  UNL1        0.0473
     27 C         141.2425  141.3642  169.5965 C.3     1  UNL1        0.1290
     28 C         143.0792  139.8568  170.6473 C.3     1  UNL1        0.0021
     29 C         142.6630  141.1604  170.0331 C.3     1  UNL1        0.0245
     30 C         143.6673  142.2603  169.8554 C.3     1  UNL1        0.0021
@<TRIPOS>BOND
     1    28    29    1
     2    29    30    1
     3    29    27    1
     4    27     1    1
     5     1     2   ar
     6     2     3   ar
     7     3    13    1
     8    13    14   ar
     9    14    15   ar
    10    15    16   ar
    11    16    17   ar
    12    17    18   ar
    13    18    23    1
    14    23    24    1
    15    24    25    1
    16    25    26    1
    17    18    19   ar
    18    19    20   ar
    19    20    21   ar
    20    21    22   ar
    21     3     4   ar
    22     4     5   ar
    23     5     6    1
    24     5     7   ar
    25     7     8   ar
    26     8     9   ar
    27     9    10   ar
    28    10     1   ar
    29    22    13   ar
    30    10     4   ar
    31    21    16   ar
    32    26    24    1
    33     6    11    1
    34     6    12    1
@<TRIPOS>MOLECULE
*****
 30 34 0 0 0
SMALL
GASTEIGER

@<TRIPOS>ATOM
      1 N         138.4738  142.8813  158.4732 N.ar    1  UNL1       -0.2340
      2 N         138.2323  142.6367  159.9333 N.ar    1  UNL1       -0.1679
      3 C         139.2759  143.3858  160.7076 C.ar    1  UNL1        0.1065
      4 C         140.1624  144.0935  159.7261 C.ar    1  UNL1        0.0860
      5 C         141.3570  144.9815  159.9114 C.ar    1  UNL1        0.1316
      6 N         141.8527  145.2933  161.2923 N.pl3   1  UNL1       -0.3425
      7 N         142.0559  145.5577  158.7158 N.ar    1  UNL1       -0.2093
      8 C         141.5602  145.2458  157.3348 C.ar    1  UNL1        0.2014
      9 N         140.3655  144.3578  157.1496 N.ar    1  UNL1       -0.2050
     10 C         139.6667  143.7816  158.3451 C.ar    1  UNL1        0.1653
     11 H         141.3939  144.9151  162.0771 H       1  UNL1        0.1437
     12 H         142.6367  145.8761  161.4140 H       1  UNL1        0.1437
     13 C         139.4095  143.4212  162.2013 C.ar    1  UNL1        0.0196
     14 C         138.6752  144.4603  162.9956 C.ar    1  UNL1        0.0031
     15 C         138.8088  144.4956  164.4892 C.ar    1  UNL1        0.0193
     16 C         139.6769  143.4919  165.1884 C.ar    1  UNL1        0.0844
     17 N         139.8106  143.5272  166.6821 N.ar    1  UNL1       -0.2117
     18 C         140.6786  142.5235  167.3814 C.ar    1  UNL1        0.2247
     19 C         141.4130  141.4844  166.5870 C.ar    1  UNL1        0.0577
     20 C         141.2793  141.4491  165.0934 C.ar    1  UNL1        0.0063
     21 C         140.4113  142.4528  164.3941 C.ar    1  UNL1        0.0180
     22 C         140.2776  142.4175  162.9006 C.ar    1  UNL1        0.0031
     23 O         140.8123  142.5588  168.8750 O.3     1  UNL1       -0.4640
     24 C         142.1711  142.6455  169.5045 C.3     1  UNL1        0.1678
     25 C         143.0805  143.2002  170.5607 C.3     1  UNL1        0.0473
     26 C         143.6151  142.2411  169.5388 C.3     1  UNL1        0.0473
     27 C         137.6645  142.3234  157.3401 C.3     1  UNL1        0.1290
     28 C         139.1148  140.1679  157.3525 C.3     1  UNL1        0.0021
     29 C         138.0398  141.0068  156.7274 C.3     1  UNL1        0.0245
     30 C         137.3401  140.5290  155.4896 C.3     1  UNL1        0.0021
@<TRIPOS>BOND
     1    28    29    1
     2    29    30    1
     3    29    27    1
     4    27     1    1
     5     1     2   ar
     6     2     3   ar
     7     3    13    1
     8    13    14   ar
     9    14    15   ar
    10    15    16   ar
    11    16    17   ar
    12    17    18   ar
    13    18    23    1
    14    23    24    1
    15    24    25    1
    16    25    26    1
    17    18    19   ar
    18    19    20   ar
    19    20    21   ar
    20    21    22   ar
    21     3     4   ar
    22     4     5   ar
    23     5     6    1
    24     5     7   ar
    25     7     8   ar
    26     8     9   ar
    27     9    10   ar
    28    10     1   ar
    29    22    13   ar
    30    10     4   ar
    31    21    16   ar
    32    26    24    1
    33     6    11    1
    34     6    12    1
@<TRIPOS>MOLECULE
*****
 30 34 0 0 0
SMALL
GASTEIGER

@<TRIPOS>ATOM
      1 N         142.8041  143.0112  161.9232 N.ar    1  UNL1       -0.2340
      2 N         142.6054  142.0773  163.0800 N.ar    1  UNL1       -0.1679
      3 C         141.3017  142.4232  163.7364 C.ar    1  UNL1        0.1065
      4 C         140.6948  143.5709  162.9851 C.ar    1  UNL1        0.0860
      5 C         139.4165  144.3321  163.1767 C.ar    1  UNL1        0.1316
      6 N         138.4880  143.9687  164.2973 N.pl3   1  UNL1       -0.3425
      7 N         139.0668  145.4566  162.2477 N.ar    1  UNL1       -0.2093
      8 C         139.9953  145.8200  161.1271 C.ar    1  UNL1        0.2014
      9 N         141.2736  145.0588  160.9355 N.ar    1  UNL1       -0.2050
     10 C         141.6233  143.9343  161.8645 C.ar    1  UNL1        0.1653
     11 H         138.7176  143.2306  164.9071 H       1  UNL1        0.1437
     12 H         137.6490  144.4682  164.4231 H       1  UNL1        0.1437
     13 C         140.7091  141.7412  164.9338 C.ar    1  UNL1        0.0196
     14 C         139.9502  140.4582  164.7669 C.ar    1  UNL1        0.0031
     15 C         139.3576  139.7762  165.9642 C.ar    1  UNL1        0.0193
     16 C         139.5238  140.3773  167.3285 C.ar    1  UNL1        0.0844
     17 N         138.9311  139.6953  168.5258 N.ar    1  UNL1       -0.2117
     18 C         139.0974  140.2964  169.8900 C.ar    1  UNL1        0.2247
     19 C         139.8563  141.5795  170.0569 C.ar    1  UNL1        0.0577
     20 C         140.4489  142.2614  168.8595 C.ar    1  UNL1        0.0063
     21 C         140.2827  141.6603  167.4953 C.ar    1  UNL1        0.0180
     22 C         140.8753  142.3423  166.2980 C.ar    1  UNL1        0.0031
     23 O         138.5047  139.6144  171.0874 O.3     1  UNL1       -0.4640
     24 C         137.1531  138.9709  170.9915 C.3     1  UNL1        0.1678
     25 C         135.8451  138.5960  171.6229 C.3     1  UNL1        0.0473
     26 C         136.1201  138.2314  170.1941 C.3     1  UNL1        0.0473
     27 C         143.9777  143.0203  160.9890 C.3     1  UNL1        0.1290
     28 C         144.8881  142.5196  158.6077 C.3     1  UNL1        0.0021
     29 C         143.9376  142.2114  159.7264 C.3     1  UNL1        0.0245
     30 C         142.9469  141.0943  159.5826 C.3     1  UNL1        0.0021
@<TRIPOS>BOND
     1    28    29    1
     2    29    30    1
     3    29    27    1
     4    27     1    1
     5     1     2   ar
     6     2     3   ar
     7     3    13    1
     8    13    14   ar
     9    14    15   ar
    10    15    16   ar
    11    16    17   ar
    12    17    18   ar
    13    18    23    1
    14    23    24    1
    15    24    25    1
    16    25    26    1
    17    18    19   ar
    18    19    20   ar
    19    20    21   ar
    20    21    22   ar
    21     3     4   ar
    22     4     5   ar
    23     5     6    1
    24     5     7   ar
    25     7     8   ar
    26     8     9   ar
    27     9    10   ar
    28    10     1   ar
    29    22    13   ar
    30    10     4   ar
    31    21    16   ar
    32    26    24    1
    33     6    11    1
    34     6    12    1
@<TRIPOS>MOLECULE
*****
 30 34 0 0 0
SMALL
GASTEIGER

@<TRIPOS>ATOM
      1 N         139.7118  142.4754  162.0484 N.ar    1  UNL1       -0.2340
      2 N         140.6090  142.3239  163.2409 N.ar    1  UNL1       -0.1679
      3 C         140.4512  140.9274  163.7651 C.ar    1  UNL1        0.1065
      4 C         139.4565  140.2158  162.8966 C.ar    1  UNL1        0.0860
      5 C         138.9079  138.8203  162.9349 C.ar    1  UNL1        0.1316
      6 N         139.3649  137.8636  163.9959 N.pl3   1  UNL1       -0.3425
      7 N         137.9022  138.3815  161.9121 N.ar    1  UNL1       -0.2093
      8 C         137.4451  139.3382  160.8511 C.ar    1  UNL1        0.2014
      9 N         137.9939  140.7338  160.8129 N.ar    1  UNL1       -0.2050
     10 C         138.9995  141.1725  161.8356 C.ar    1  UNL1        0.1653
     11 H         140.0249  138.1516  164.6672 H       1  UNL1        0.1437
     12 H         139.0048  136.9476  164.0210 H       1  UNL1        0.1437
     13 C         141.1632  140.3446  164.9499 C.ar    1  UNL1        0.0196
     14 C         142.4487  139.5958  164.7587 C.ar    1  UNL1        0.0031
     15 C         143.1606  139.0131  165.9434 C.ar    1  UNL1        0.0193
     16 C         142.5870  139.1793  167.3194 C.ar    1  UNL1        0.0844
     17 N         143.2989  138.5966  168.5042 N.ar    1  UNL1       -0.2117
     18 C         142.7253  138.7628  169.8802 C.ar    1  UNL1        0.2247
     19 C         141.4397  139.5117  170.0714 C.ar    1  UNL1        0.0577
     20 C         140.7278  140.0944  168.8866 C.ar    1  UNL1        0.0063
     21 C         141.3015  139.9282  167.5106 C.ar    1  UNL1        0.0180
     22 C         140.5896  140.5108  166.3259 C.ar    1  UNL1        0.0031
     23 O         143.4372  138.1801  171.0649 O.3     1  UNL1       -0.4640
     24 C         144.1333  136.8567  170.9454 C.3     1  UNL1        0.1678
     25 C         144.3916  135.4733  171.4644 C.3     1  UNL1        0.0473
     26 C         145.0804  135.9481  170.2194 C.3     1  UNL1        0.0473
     27 C         139.5545  143.7126  161.2149 C.3     1  UNL1        0.1290
     28 C         141.7307  143.1209  159.9250 C.3     1  UNL1        0.0021
     29 C         140.5539  144.0256  160.1411 C.3     1  UNL1        0.0245
     30 C         140.3765  145.2433  159.2834 C.3     1  UNL1        0.0021
@<TRIPOS>BOND
     1    28    29    1
     2    29    30    1
     3    29    27    1
     4    27     1    1
     5     1     2   ar
     6     2     3   ar
     7     3    13    1
     8    13    14   ar
     9    14    15   ar
    10    15    16   ar
    11    16    17   ar
    12    17    18   ar
    13    18    23    1
    14    23    24    1
    15    24    25    1
    16    25    26    1
    17    18    19   ar
    18    19    20   ar
    19    20    21   ar
    20    21    22   ar
    21     3     4   ar
    22     4     5   ar
    23     5     6    1
    24     5     7   ar
    25     7     8   ar
    26     8     9   ar
    27     9    10   ar
    28    10     1   ar
    29    22    13   ar
    30    10     4   ar
    31    21    16   ar
    32    26    24    1
    33     6    11    1
    34     6    12    1
@<TRIPOS>MOLECULE
*****
 30 34 0 0 0
SMALL
GASTEIGER

@<TRIPOS>ATOM
      1 N         144.3174  141.4831  158.4000 N.ar    1  UNL1       -0.2340
      2 N         144.2673  141.8626  159.8503 N.ar    1  UNL1       -0.1679
      3 C         143.7161  140.6963  160.6159 C.ar    1  UNL1        0.1065
      4 C         143.4257  139.5960  159.6386 C.ar    1  UNL1        0.0860
      5 C         142.8708  138.2141  159.8189 C.ar    1  UNL1        0.1316
      6 N         142.4992  137.7279  161.1884 N.pl3   1  UNL1       -0.3425
      7 N         142.6875  137.3184  158.6297 N.ar    1  UNL1       -0.2093
      8 C         143.0591  137.8046  157.2603 C.ar    1  UNL1        0.2014
      9 N         143.6140  139.1866  157.0800 N.ar    1  UNL1       -0.2050
     10 C         143.7973  140.0822  158.2692 C.ar    1  UNL1        0.1653
     11 H         142.6194  138.3158  161.9689 H       1  UNL1        0.1437
     12 H         142.1350  136.8209  161.3068 H       1  UNL1        0.1437
     13 C         143.4944  140.6402  162.0984 C.ar    1  UNL1        0.0196
     14 C         144.5760  140.1226  162.9994 C.ar    1  UNL1        0.0031
     15 C         144.3542  140.0665  164.4819 C.ar    1  UNL1        0.0193
     16 C         143.0508  140.5280  165.0632 C.ar    1  UNL1        0.0844
     17 N         142.8290  140.4719  166.5457 N.ar    1  UNL1       -0.2117
     18 C         141.5255  140.9334  167.1270 C.ar    1  UNL1        0.2247
     19 C         140.4438  141.4511  166.2259 C.ar    1  UNL1        0.0577
     20 C         140.6656  141.5072  164.7435 C.ar    1  UNL1        0.0063
     21 C         141.9691  141.0456  164.1621 C.ar    1  UNL1        0.0180
     22 C         142.1909  141.1017  162.6797 C.ar    1  UNL1        0.0031
     23 O         141.3037  140.8773  168.6095 O.3     1  UNL1       -0.4640
     24 C         140.6810  142.0429  169.3193 C.3     1  UNL1        0.1678
     25 C         139.8269  142.5835  170.4275 C.3     1  UNL1        0.0473
     26 C         140.4567  143.5210  169.4405 C.3     1  UNL1        0.0473
     27 C         144.8026  142.3518  157.2776 C.3     1  UNL1        0.1290
     28 C         147.3419  142.9009  157.3033 C.3     1  UNL1        0.0021
     29 C         146.1801  142.1543  156.7177 C.3     1  UNL1        0.0245
     30 C         146.3958  141.2101  155.5723 C.3     1  UNL1        0.0021
@<TRIPOS>BOND
     1    28    29    1
     2    29    30    1
     3    29    27    1
     4    27     1    1
     5     1     2   ar
     6     2     3   ar
     7     3    13    1
     8    13    14   ar
     9    14    15   ar
    10    15    16   ar
    11    16    17   ar
    12    17    18   ar
    13    18    23    1
    14    23    24    1
    15    24    25    1
    16    25    26    1
    17    18    19   ar
    18    19    20   ar
    19    20    21   ar
    20    21    22   ar
    21     3     4   ar
    22     4     5   ar
    23     5     6    1
    24     5     7   ar
    25     7     8   ar
    26     8     9   ar
    27     9    10   ar
    28    10     1   ar
    29    22    13   ar
    30    10     4   ar
    31    21    16   ar
    32    26    24    1
    33     6    11    1
    34     6    12    1
@<TRIPOS>MOLECULE
*****
 30 34 0 0 0
SMALL
GASTEIGER

@<TRIPOS>ATOM
      1 N         141.7894  141.2537  168.0829 N.ar    1  UNL1       -0.2340
      2 N         141.4450  142.3557  167.1253 N.ar    1  UNL1       -0.1679
      3 C         141.9916  141.9867  165.7780 C.ar    1  UNL1        0.1065
      4 C         142.6738  140.6566  165.9030 C.ar    1  UNL1        0.0860
      5 C         143.3927  139.7995  164.9038 C.ar    1  UNL1        0.1316
      6 N         143.5176  140.2525  163.4793 N.pl3   1  UNL1       -0.3425
      7 N         143.9866  138.4894  165.3290 N.ar    1  UNL1       -0.2093
      8 C         143.8617  138.0364  166.7535 C.ar    1  UNL1        0.2014
      9 N         143.1428  138.8936  167.7527 N.ar    1  UNL1       -0.2050
     10 C         142.5489  140.2036  167.3275 C.ar    1  UNL1        0.1653
     11 H         143.1278  141.1124  163.2002 H       1  UNL1        0.1437
     12 H         143.9895  139.6900  162.8235 H       1  UNL1        0.1437
     13 C         141.8762  142.8042  164.5256 C.ar    1  UNL1        0.0196
     14 C         142.7839  143.9788  164.3104 C.ar    1  UNL1        0.0031
     15 C         142.6685  144.7962  163.0581 C.ar    1  UNL1        0.0193
     16 C         141.6454  144.4390  162.0209 C.ar    1  UNL1        0.0844
     17 N         141.5301  145.2565  160.7685 N.ar    1  UNL1       -0.2117
     18 C         140.5070  144.8993  159.7313 C.ar    1  UNL1        0.2247
     19 C         139.5993  143.7246  159.9465 C.ar    1  UNL1        0.0577
     20 C         139.7147  142.9072  161.1989 C.ar    1  UNL1        0.0063
     21 C         140.7378  143.2644  162.2361 C.ar    1  UNL1        0.0180
     22 C         140.8532  142.4470  163.4884 C.ar    1  UNL1        0.0031
     23 O         140.3916  145.7167  158.4789 O.3     1  UNL1       -0.4640
     24 C         140.0879  145.0470  157.1715 C.3     1  UNL1        0.1678
     25 C         140.4130  144.8115  155.7262 C.3     1  UNL1        0.0473
     26 C         139.2369  144.1226  156.3523 C.3     1  UNL1        0.0473
     27 C         141.4363  141.2096  169.5401 C.3     1  UNL1        0.1290
     28 C         138.9537  140.5226  169.8787 C.3     1  UNL1        0.0021
     29 C         140.0442  141.5471  169.9851 C.3     1  UNL1        0.0245
     30 C         139.7425  142.9091  170.5363 C.3     1  UNL1        0.0021
@<TRIPOS>BOND
     1    28    29    1
     2    29    30    1
     3    29    27    1
     4    27     1    1
     5     1     2   ar
     6     2     3   ar
     7     3    13    1
     8    13    14   ar
     9    14    15   ar
    10    15    16   ar
    11    16    17   ar
    12    17    18   ar
    13    18    23    1
    14    23    24    1
    15    24    25    1
    16    25    26    1
    17    18    19   ar
    18    19    20   ar
    19    20    21   ar
    20    21    22   ar
    21     3     4   ar
    22     4     5   ar
    23     5     6    1
    24     5     7   ar
    25     7     8   ar
    26     8     9   ar
    27     9    10   ar
    28    10     1   ar
    29    22    13   ar
    30    10     4   ar
    31    21    16   ar
    32    26    24    1
    33     6    11    1
    34     6    12    1
@<TRIPOS>MOLECULE
*****
 30 34 0 0 0
SMALL
GASTEIGER

@<TRIPOS>ATOM
      1 N         140.6345  142.5807  163.9602 N.ar    1  UNL1       -0.2340
      2 N         140.5526  141.3356  163.1276 N.ar    1  UNL1       -0.1679
      3 C         141.7353  141.3161  162.2053 C.ar    1  UNL1        0.1065
      4 C         142.5483  142.5491  162.4678 C.ar    1  UNL1        0.0860
      5 C         143.8201  143.0611  161.8594 C.ar    1  UNL1        0.1316
      6 N         144.5004  142.2796  160.7748 N.pl3   1  UNL1       -0.3425
      7 N         144.4117  144.3547  162.3356 N.ar    1  UNL1       -0.2093
      8 C         143.7314  145.1363  163.4201 C.ar    1  UNL1        0.2014
      9 N         142.4595  144.6242  164.0286 N.ar    1  UNL1       -0.2050
     10 C         141.8680  143.3307  163.5524 C.ar    1  UNL1        0.1653
     11 H         144.1122  141.4306  160.4623 H       1  UNL1        0.1437
     12 H         145.3352  142.6156  160.3755 H       1  UNL1        0.1437
     13 C         142.0500  140.2507  161.1973 C.ar    1  UNL1        0.0196
     14 C         142.8410  139.0430  161.6046 C.ar    1  UNL1        0.0031
     15 C         143.1555  137.9777  160.5966 C.ar    1  UNL1        0.0193
     16 C         142.6791  138.1200  159.1814 C.ar    1  UNL1        0.0844
     17 N         142.9938  137.0545  158.1735 N.ar    1  UNL1       -0.2117
     18 C         142.5173  137.1968  156.7583 C.ar    1  UNL1        0.2247
     19 C         141.7263  138.4045  156.3510 C.ar    1  UNL1        0.0577
     20 C         141.4117  139.4699  157.3590 C.ar    1  UNL1        0.0063
     21 C         141.8881  139.3276  158.7742 C.ar    1  UNL1        0.0180
     22 C         141.5736  140.3929  159.7821 C.ar    1  UNL1        0.0031
     23 O         142.8319  136.1314  155.7503 O.3     1  UNL1       -0.4640
     24 C         143.0888  134.7242  156.2017 C.3     1  UNL1        0.1678
     25 C         142.6153  133.3133  156.3897 C.3     1  UNL1        0.0473
     26 C         144.0072  133.6977  156.7956 C.3     1  UNL1        0.0473
     27 C         139.6550  143.0018  165.0153 C.3     1  UNL1        0.1290
     28 C         138.3604  145.1056  165.8203 C.3     1  UNL1        0.0021
     29 C         138.6908  144.1176  164.7410 C.3     1  UNL1        0.0245
     30 C         138.0569  144.2453  163.3876 C.3     1  UNL1        0.0021
@<TRIPOS>BOND
     1    28    29    1
     2    29    30    1
     3    29    27    1
     4    27     1    1
     5     1     2   ar
     6     2     3   ar
     7     3    13    1
     8    13    14   ar
     9    14    15   ar
    10    15    16   ar
    11    16    17   ar
    12    17    18   ar
    13    18    23    1
    14    23    24    1
    15    24    25    1
    16    25    26    1
    17    18    19   ar
    18    19    20   ar
    19    20    21   ar
    20    21    22   ar
    21     3     4   ar
    22     4     5   ar
    23     5     6    1
    24     5     7   ar
    25     7     8   ar
    26     8     9   ar
    27     9    10   ar
    28    10     1   ar
    29    22    13   ar
    30    10     4   ar
    31    21    16   ar
    32    26    24    1
    33     6    11    1
    34     6    12    1
@<TRIPOS>MOLECULE
*****
 30 34 0 0 0
SMALL
GASTEIGER

@<TRIPOS>ATOM
      1 N         142.0588  140.1281  167.5284 N.ar    1  UNL1       -0.2340
      2 N         142.8972  140.0962  166.2851 N.ar    1  UNL1       -0.1679
      3 C         142.0194  139.6730  165.1448 C.ar    1  UNL1        0.1065
      4 C         140.6384  139.4434  165.6834 C.ar    1  UNL1        0.0860
      5 C         139.3619  139.0145  165.0227 C.ar    1  UNL1        0.1316
      6 N         139.3376  138.7332  163.5495 N.pl3   1  UNL1       -0.3425
      7 N         138.1096  138.8668  165.8352 N.ar    1  UNL1       -0.2093
      8 C         138.1339  139.1481  167.3084 C.ar    1  UNL1        0.2014
      9 N         139.4105  139.5770  167.9690 N.ar    1  UNL1       -0.2050
     10 C         140.6627  139.7246  167.1566 C.ar    1  UNL1        0.1653
     11 H         140.1594  138.8301  163.0162 H       1  UNL1        0.1437
     12 H         138.4997  138.4518  163.1159 H       1  UNL1        0.1437
     13 C         142.4474  139.5084  163.7165 C.ar    1  UNL1        0.0196
     14 C         142.6167  138.1349  163.1379 C.ar    1  UNL1        0.0031
     15 C         143.0447  137.9703  161.7097 C.ar    1  UNL1        0.0193
     16 C         143.3033  139.1792  160.8602 C.ar    1  UNL1        0.0844
     17 N         143.7313  139.0145  159.4320 N.ar    1  UNL1       -0.2117
     18 C         143.9900  140.2234  158.5824 C.ar    1  UNL1        0.2247
     19 C         143.8207  141.5970  159.1611 C.ar    1  UNL1        0.0577
     20 C         143.3927  141.7615  160.5893 C.ar    1  UNL1        0.0063
     21 C         143.1340  140.5527  161.4388 C.ar    1  UNL1        0.0180
     22 C         142.7061  140.7172  162.8670 C.ar    1  UNL1        0.0031
     23 O         144.4180  140.0588  157.1543 O.3     1  UNL1       -0.4640
     24 C         145.1207  141.1802  156.4479 C.3     1  UNL1        0.1678
     25 C         145.0677  142.4713  155.6862 C.3     1  UNL1        0.0473
     26 C         146.3906  141.8311  155.9860 C.3     1  UNL1        0.0473
     27 C         142.5331  140.4984  168.9024 C.3     1  UNL1        0.1290
     28 C         143.8805  142.4919  169.8825 C.3     1  UNL1        0.0021
     29 C         142.6100  141.9411  169.3058 C.3     1  UNL1        0.0245
     30 C         141.4165  142.8330  169.1324 C.3     1  UNL1        0.0021
@<TRIPOS>BOND
     1    28    29    1
     2    29    30    1
     3    29    27    1
     4    27     1    1
     5     1     2   ar
     6     2     3   ar
     7     3    13    1
     8    13    14   ar
     9    14    15   ar
    10    15    16   ar
    11    16    17   ar
    12    17    18   ar
    13    18    23    1
    14    23    24    1
    15    24    25    1
    16    25    26    1
    17    18    19   ar
    18    19    20   ar
    19    20    21   ar
    20    21    22   ar
    21     3     4   ar
    22     4     5   ar
    23     5     6    1
    24     5     7   ar
    25     7     8   ar
    26     8     9   ar
    27     9    10   ar
    28    10     1   ar
    29    22    13   ar
    30    10     4   ar
    31    21    16   ar
    32    26    24    1
    33     6    11    1
    34     6    12    1
