@<TRIPOS>MOLECULE
*****
 26 30 0 0 0
SMALL
GASTEIGER

@<TRIPOS>ATOM
      1 O         138.0710  143.3457  161.2652 O.2     1  UNL1       -0.2666
      2 C         138.9903  143.4984  162.4406 C.2     1  UNL1        0.2834
      3 C         138.9377  142.5096  163.5674 C.ar    1  UNL1        0.1985
      4 N         138.0910  141.2928  163.7962 N.ar    1  UNL1       -0.2227
      5 C         138.4871  140.6934  165.1130 C.ar    1  UNL1        0.0988
      6 C         137.9948  139.4862  165.8549 C.ar    1  UNL1        0.0206
      7 C         138.5941  139.1255  167.1819 C.ar    1  UNL1        0.0016
      8 C         139.6855  139.9720  167.7669 C.ar    1  UNL1        0.0054
      9 C         140.1777  141.1791  167.0250 C.ar    1  UNL1        0.0887
     10 C         139.5785  141.5398  165.6981 C.ar    1  UNL1        0.0829
     11 N         139.8570  142.6623  164.7428 N.ar    1  UNL1       -0.3061
     12 C         140.8289  143.8038  164.7914 C.3     1  UNL1        0.1291
     13 C         140.8816  144.7925  163.6646 C.3     1  UNL1        0.1183
     14 N         139.9623  144.6398  162.4892 N.am    1  UNL1       -0.2716
     15 C         141.2692  142.0256  167.6100 C.3     1  UNL1        0.4200
     16 F         142.3607  142.8721  168.1950 F       1  UNL1       -0.1658
     17 F         142.2930  141.0468  167.1162 F       1  UNL1       -0.1658
     18 F         140.2454  143.0044  168.1038 F       1  UNL1       -0.1658
     19 C         140.0149  145.6286  161.3624 C.3     1  UNL1        0.0938
     20 C         140.6995  145.2661  160.0780 C.3     1  UNL1        0.0199
     21 C         141.8443  144.3083  159.9287 C.3     1  UNL1        0.0017
     22 C         142.2119  144.2481  158.4757 C.3     1  UNL1        0.0001
     23 C         141.8719  144.7798  157.1150 C.3     1  UNL1        0.0000
     24 C         140.7272  145.7376  157.2642 C.3     1  UNL1        0.0001
     25 C         140.3597  145.7978  158.7172 C.3     1  UNL1        0.0016
     26 C         141.2772  144.8773  159.4659 C.3     1  UNL1        0.0001
@<TRIPOS>BOND
     1     1     2    2
     2     2     3    1
     3     3     4   ar
     4     4     5   ar
     5     5     6   ar
     6     6     7   ar
     7     7     8   ar
     8     8     9   ar
     9     9    15    1
    10    15    16    1
    11    15    17    1
    12    15    18    1
    13     9    10   ar
    14    10    11   ar
    15    11    12    1
    16    12    13    1
    17    13    14    1
    18    14    19    1
    19    19    20    1
    20    20    21    1
    21    21    22    1
    22    22    23    1
    23    23    24    1
    24    24    25    1
    25    25    26    1
    26    14     2   am
    27    25    20    1
    28    11     3   ar
    29    26    22    1
    30    10     5   ar
@<TRIPOS>MOLECULE
*****
 26 30 0 0 0
SMALL
GASTEIGER

@<TRIPOS>ATOM
      1 O         138.4489  138.1072  165.4470 O.2     1  UNL1       -0.2666
      2 C         139.7637  138.8254  165.3743 C.2     1  UNL1        0.2834
      3 C         140.6077  138.7218  164.1385 C.ar    1  UNL1        0.1985
      4 N         140.4062  137.9916  162.8438 N.ar    1  UNL1       -0.2227
      5 C         141.5965  138.2586  161.9709 C.ar    1  UNL1        0.0988
      6 C         141.9481  137.8022  160.5860 C.ar    1  UNL1        0.0206
      7 C         143.2368  138.2411  159.9563 C.ar    1  UNL1        0.0016
      8 C         144.1739  139.1363  160.7115 C.ar    1  UNL1        0.0054
      9 C         143.8223  139.5926  162.0965 C.ar    1  UNL1        0.0887
     10 C         142.5336  139.1538  162.7261 C.ar    1  UNL1        0.0829
     11 N         141.9225  139.4401  164.0658 N.ar    1  UNL1       -0.3061
     12 C         142.3934  140.2620  165.2288 C.3     1  UNL1        0.1291
     13 C         141.5495  140.3656  166.4646 C.3     1  UNL1        0.1183
     14 N         140.2346  139.6474  166.5373 N.am    1  UNL1       -0.2716
     15 C         144.7595  140.4879  162.8517 C.3     1  UNL1        0.4200
     16 F         145.6966  141.3831  163.6069 F       1  UNL1       -0.1658
     17 F         145.1530  139.3362  163.7285 F       1  UNL1       -0.1658
     18 F         144.3660  141.6395  161.9749 F       1  UNL1       -0.1658
     19 C         139.3907  139.7510  167.7731 C.3     1  UNL1        0.0938
     20 C         139.9417  140.4063  169.0047 C.3     1  UNL1        0.0199
     21 C         140.7426  139.7320  170.0790 C.3     1  UNL1        0.0017
     22 C         141.0843  140.7599  171.1166 C.3     1  UNL1        0.0001
     23 C         140.9311  142.2045  171.4902 C.3     1  UNL1        0.0000
     24 C         140.1303  142.8788  170.4160 C.3     1  UNL1        0.0001
     25 C         139.7885  141.8509  169.3784 C.3     1  UNL1        0.0016
     26 C         140.3781  140.5414  169.8114 C.3     1  UNL1        0.0001
@<TRIPOS>BOND
     1     1     2    2
     2     2     3    1
     3     3     4   ar
     4     4     5   ar
     5     5     6   ar
     6     6     7   ar
     7     7     8   ar
     8     8     9   ar
     9     9    15    1
    10    15    16    1
    11    15    17    1
    12    15    18    1
    13     9    10   ar
    14    10    11   ar
    15    11    12    1
    16    12    13    1
    17    13    14    1
    18    14    19    1
    19    19    20    1
    20    20    21    1
    21    21    22    1
    22    22    23    1
    23    23    24    1
    24    24    25    1
    25    25    26    1
    26    14     2   am
    27    25    20    1
    28    11     3   ar
    29    26    22    1
    30    10     5   ar
@<TRIPOS>MOLECULE
*****
 26 30 0 0 0
SMALL
GASTEIGER

@<TRIPOS>ATOM
      1 O         138.0450  139.6680  164.7631 O.2     1  UNL1       -0.2666
      2 C         139.1587  140.6708  164.8261 C.2     1  UNL1        0.2834
      3 C         139.4600  141.5329  163.6361 C.ar    1  UNL1        0.1985
      4 N         138.8351  141.6192  162.2752 N.ar    1  UNL1       -0.2227
      5 C         139.5626  142.6753  161.4972 C.ar    1  UNL1        0.0988
      6 C         139.3854  143.1943  160.1011 C.ar    1  UNL1        0.0206
      7 C         140.2828  144.2798  159.5850 C.ar    1  UNL1        0.0016
      8 C         141.3574  144.8462  160.4650 C.ar    1  UNL1        0.0054
      9 C         141.5346  144.3271  161.8611 C.ar    1  UNL1        0.0887
     10 C         140.6372  143.2417  162.3772 C.ar    1  UNL1        0.0829
     11 N         140.5738  142.5356  163.6991 N.ar    1  UNL1       -0.3061
     12 C         141.3863  142.6763  164.9521 C.3     1  UNL1        0.1291
     13 C         141.0851  141.8141  166.1421 C.3     1  UNL1        0.1183
     14 N         139.9713  140.8114  166.0791 N.am    1  UNL1       -0.2716
     15 C         142.6092  144.8935  162.7411 C.3     1  UNL1        0.4200
     16 F         143.6838  145.4599  163.6211 F       1  UNL1       -0.1658
     17 F         141.5878  145.7360  163.4461 F       1  UNL1       -0.1658
     18 F         143.6306  144.0511  162.0361 F       1  UNL1       -0.1658
     19 C         139.6701  139.9493  167.2691 C.3     1  UNL1        0.0938
     20 C         140.2863  140.2655  168.5995 C.3     1  UNL1        0.0199
     21 C         139.6613  141.0871  169.6878 C.3     1  UNL1        0.0017
     22 C         140.6245  141.1450  170.8362 C.3     1  UNL1        0.0001
     23 C         141.9740  140.6951  171.3120 C.3     1  UNL1        0.0000
     24 C         142.5990  139.8735  170.2238 C.3     1  UNL1        0.0001
     25 C         141.6358  139.8156  169.0754 C.3     1  UNL1        0.0016
     26 C         140.4155  140.6014  169.4539 C.3     1  UNL1        0.0001
@<TRIPOS>BOND
     1     1     2    2
     2     2     3    1
     3     3     4   ar
     4     4     5   ar
     5     5     6   ar
     6     6     7   ar
     7     7     8   ar
     8     8     9   ar
     9     9    15    1
    10    15    16    1
    11    15    17    1
    12    15    18    1
    13     9    10   ar
    14    10    11   ar
    15    11    12    1
    16    12    13    1
    17    13    14    1
    18    14    19    1
    19    19    20    1
    20    20    21    1
    21    21    22    1
    22    22    23    1
    23    23    24    1
    24    24    25    1
    25    25    26    1
    26    14     2   am
    27    25    20    1
    28    11     3   ar
    29    26    22    1
    30    10     5   ar
@<TRIPOS>MOLECULE
*****
 26 30 0 0 0
SMALL
GASTEIGER

@<TRIPOS>ATOM
      1 O         144.0951  139.5293  158.5652 O.2     1  UNL1       -0.2666
      2 C         142.9906  139.0814  159.4759 C.2     1  UNL1        0.2834
      3 C         143.2128  139.0369  160.9587 C.ar    1  UNL1        0.1985
      4 N         144.4045  139.3723  161.8056 N.ar    1  UNL1       -0.2227
      5 C         144.0366  139.1317  163.2398 C.ar    1  UNL1        0.0988
      6 C         144.8105  139.2909  164.5148 C.ar    1  UNL1        0.0206
      7 C         144.1651  138.9660  165.8293 C.ar    1  UNL1        0.0016
      8 C         142.7459  138.4820  165.8688 C.ar    1  UNL1        0.0054
      9 C         141.9721  138.3228  164.5937 C.ar    1  UNL1        0.0887
     10 C         142.6174  138.6477  163.2792 C.ar    1  UNL1        0.0829
     11 N         142.1083  138.5891  161.8695 N.ar    1  UNL1       -0.3061
     12 C         140.7816  138.1858  161.2974 C.3     1  UNL1        0.1291
     13 C         140.5594  138.2303  159.8146 C.3     1  UNL1        0.1183
     14 N         141.6639  138.6782  158.9039 N.am    1  UNL1       -0.2716
     15 C         140.5528  137.8388  164.6332 C.3     1  UNL1        0.4200
     16 F         139.1336  137.3547  164.6727 F       1  UNL1       -0.1658
     17 F         140.0680  139.2579  164.6024 F       1  UNL1       -0.1658
     18 F         141.0377  136.4196  164.6640 F       1  UNL1       -0.1658
     19 C         141.4418  138.7227  157.4211 C.3     1  UNL1        0.0938
     20 C         141.7808  137.5309  156.5758 C.3     1  UNL1        0.0199
     21 C         140.7995  136.5719  155.9695 C.3     1  UNL1        0.0017
     22 C         141.5729  135.5371  155.2074 C.3     1  UNL1        0.0001
     23 C         142.9529  135.0950  154.8199 C.3     1  UNL1        0.0000
     24 C         143.9342  136.0539  155.4260 C.3     1  UNL1        0.0001
     25 C         143.1608  137.0887  156.1882 C.3     1  UNL1        0.0016
     26 C         141.7014  136.7693  156.0531 C.3     1  UNL1        0.0001
@<TRIPOS>BOND
     1     1     2    2
     2     2     3    1
     3     3     4   ar
     4     4     5   ar
     5     5     6   ar
     6     6     7   ar
     7     7     8   ar
     8     8     9   ar
     9     9    15    1
    10    15    16    1
    11    15    17    1
    12    15    18    1
    13     9    10   ar
    14    10    11   ar
    15    11    12    1
    16    12    13    1
    17    13    14    1
    18    14    19    1
    19    19    20    1
    20    20    21    1
    21    21    22    1
    22    22    23    1
    23    23    24    1
    24    24    25    1
    25    25    26    1
    26    14     2   am
    27    25    20    1
    28    11     3   ar
    29    26    22    1
    30    10     5   ar
@<TRIPOS>MOLECULE
*****
 26 30 0 0 0
SMALL
GASTEIGER

@<TRIPOS>ATOM
      1 O         138.1856  145.1064  162.4673 O.2     1  UNL1       -0.2666
      2 C         139.6290  144.7082  162.5563 C.2     1  UNL1        0.2834
      3 C         140.1540  144.0655  163.8059 C.ar    1  UNL1        0.1985
      4 N         139.4920  143.7014  165.1017 N.ar    1  UNL1       -0.2227
      5 C         140.5263  143.0782  165.9916 C.ar    1  UNL1        0.0988
      6 C         140.4513  142.5272  167.3847 C.ar    1  UNL1        0.0206
      7 C         141.6776  141.9551  168.0319 C.ar    1  UNL1        0.0016
      8 C         142.9788  141.9340  167.2860 C.ar    1  UNL1        0.0054
      9 C         143.0538  142.4850  165.8929 C.ar    1  UNL1        0.0887
     10 C         141.8276  143.0571  165.2457 C.ar    1  UNL1        0.0829
     11 N         141.5975  143.6673  163.8949 N.ar    1  UNL1       -0.3061
     12 C         142.5158  143.9117  162.7344 C.3     1  UNL1        0.1291
     13 C         141.9908  144.5544  161.4848 C.3     1  UNL1        0.1183
     14 N         140.5473  144.9526  161.3958 N.am    1  UNL1       -0.2716
     15 C         144.3551  142.4639  165.1471 C.3     1  UNL1        0.4200
     16 F         145.6563  142.4428  164.4012 F       1  UNL1       -0.1658
     17 F         144.7241  143.7853  165.7535 F       1  UNL1       -0.1658
     18 F         143.9860  141.1425  164.5406 F       1  UNL1       -0.1658
     19 C         140.0223  145.5953  160.1463 C.3     1  UNL1        0.0938
     20 C         140.4141  145.0546  158.8032 C.3     1  UNL1        0.0199
     21 C         139.8413  143.8361  158.1419 C.3     1  UNL1        0.0017
     22 C         140.5208  143.6658  156.8155 C.3     1  UNL1        0.0001
     23 C         141.5543  144.2486  155.8978 C.3     1  UNL1        0.0000
     24 C         142.1271  145.4671  156.5590 C.3     1  UNL1        0.0001
     25 C         141.4476  145.6373  157.8854 C.3     1  UNL1        0.0016
     26 C         140.4549  144.5241  158.0439 C.3     1  UNL1        0.0001
@<TRIPOS>BOND
     1     1     2    2
     2     2     3    1
     3     3     4   ar
     4     4     5   ar
     5     5     6   ar
     6     6     7   ar
     7     7     8   ar
     8     8     9   ar
     9     9    15    1
    10    15    16    1
    11    15    17    1
    12    15    18    1
    13     9    10   ar
    14    10    11   ar
    15    11    12    1
    16    12    13    1
    17    13    14    1
    18    14    19    1
    19    19    20    1
    20    20    21    1
    21    21    22    1
    22    22    23    1
    23    23    24    1
    24    24    25    1
    25    25    26    1
    26    14     2   am
    27    25    20    1
    28    11     3   ar
    29    26    22    1
    30    10     5   ar
@<TRIPOS>MOLECULE
*****
 26 30 0 0 0
SMALL
GASTEIGER

@<TRIPOS>ATOM
      1 O         141.7778  139.2421  163.3664 O.2     1  UNL1       -0.2666
      2 C         140.9163  139.2779  164.5938 C.2     1  UNL1        0.2834
      3 C         141.3703  140.0341  165.8071 C.ar    1  UNL1        0.1985
      4 N         142.6081  140.8340  166.0863 N.ar    1  UNL1       -0.2227
      5 C         142.5116  141.3641  167.4862 C.ar    1  UNL1        0.0988
      6 C         143.4376  142.2157  168.3030 C.ar    1  UNL1        0.0206
      7 C         143.0661  142.5951  169.7058 C.ar    1  UNL1        0.0016
      8 C         141.7686  142.1229  170.2918 C.ar    1  UNL1        0.0054
      9 C         140.8426  141.2712  169.4750 C.ar    1  UNL1        0.0887
     10 C         141.2141  140.8918  168.0722 C.ar    1  UNL1        0.0829
     11 N         140.5088  140.0698  167.0345 N.ar    1  UNL1       -0.3061
     12 C         139.1933  139.3493  167.0486 C.3     1  UNL1        0.1291
     13 C         138.7393  138.5931  165.8353 C.3     1  UNL1        0.1183
     14 N         139.6008  138.5573  164.6079 N.am    1  UNL1       -0.2716
     15 C         139.5451  140.7989  170.0611 C.3     1  UNL1        0.4200
     16 F         138.2476  140.3266  170.6471 F       1  UNL1       -0.1658
     17 F         140.1041  139.4122  170.1812 F       1  UNL1       -0.1658
     18 F         138.9861  142.1857  169.9409 F       1  UNL1       -0.1658
     19 C         139.1468  137.8011  163.3947 C.3     1  UNL1        0.0938
     20 C         138.8136  138.5391  162.1321 C.3     1  UNL1        0.0199
     21 C         137.7332  139.5672  161.9706 C.3     1  UNL1        0.0017
     22 C         137.7542  140.0421  160.5480 C.3     1  UNL1        0.0001
     23 C         138.4428  139.8817  159.2251 C.3     1  UNL1        0.0000
     24 C         139.5231  138.8537  159.3865 C.3     1  UNL1        0.0001
     25 C         139.5022  138.3787  160.8091 C.3     1  UNL1        0.0016
     26 C         138.4089  139.1132  161.5270 C.3     1  UNL1        0.0001
@<TRIPOS>BOND
     1     1     2    2
     2     2     3    1
     3     3     4   ar
     4     4     5   ar
     5     5     6   ar
     6     6     7   ar
     7     7     8   ar
     8     8     9   ar
     9     9    15    1
    10    15    16    1
    11    15    17    1
    12    15    18    1
    13     9    10   ar
    14    10    11   ar
    15    11    12    1
    16    12    13    1
    17    13    14    1
    18    14    19    1
    19    19    20    1
    20    20    21    1
    21    21    22    1
    22    22    23    1
    23    23    24    1
    24    24    25    1
    25    25    26    1
    26    14     2   am
    27    25    20    1
    28    11     3   ar
    29    26    22    1
    30    10     5   ar
@<TRIPOS>MOLECULE
*****
 26 30 0 0 0
SMALL
GASTEIGER

@<TRIPOS>ATOM
      1 O         138.4751  137.6599  165.5018 O.2     1  UNL1       -0.2666
      2 C         138.7172  139.1145  165.2271 C.2     1  UNL1        0.2834
      3 C         138.5889  139.6454  163.8301 C.ar    1  UNL1        0.1985
      4 N         138.2403  138.9803  162.5316 N.ar    1  UNL1       -0.2227
      5 C         138.2669  140.0238  161.4544 C.ar    1  UNL1        0.0988
      6 C         138.0059  139.9503  159.9791 C.ar    1  UNL1        0.0206
      7 C         138.1100  141.1869  159.1366 C.ar    1  UNL1        0.0016
      8 C         138.4750  142.4970  159.7693 C.ar    1  UNL1        0.0054
      9 C         138.7360  142.5705  161.2446 C.ar    1  UNL1        0.0887
     10 C         138.6320  141.3339  162.0871 C.ar    1  UNL1        0.0829
     11 N         138.8310  141.1000  163.5553 N.ar    1  UNL1       -0.3061
     12 C         139.2013  142.0237  164.6777 C.3     1  UNL1        0.1291
     13 C         139.3296  141.4928  166.0747 C.3     1  UNL1        0.1183
     14 N         139.0875  140.0382  166.3494 N.am    1  UNL1       -0.2716
     15 C         139.1011  143.8806  161.8773 C.3     1  UNL1        0.4200
     16 F         139.4661  145.1907  162.5100 F       1  UNL1       -0.1658
     17 F         140.4769  143.7820  161.2879 F       1  UNL1       -0.1658
     18 F         137.7253  143.9793  162.4667 F       1  UNL1       -0.1658
     19 C         139.2158  139.5072  167.7464 C.3     1  UNL1        0.0938
     20 C         140.0555  140.2375  168.7522 C.3     1  UNL1        0.0199
     21 C         139.5471  141.1472  169.8312 C.3     1  UNL1        0.0017
     22 C         140.7285  141.6583  170.6013 C.3     1  UNL1        0.0001
     23 C         142.2240  141.6071  170.7046 C.3     1  UNL1        0.0000
     24 C         142.7324  140.6975  169.6257 C.3     1  UNL1        0.0001
     25 C         141.5511  140.1865  168.8556 C.3     1  UNL1        0.0016
     26 C         140.3126  140.7802  169.4585 C.3     1  UNL1        0.0001
@<TRIPOS>BOND
     1     1     2    2
     2     2     3    1
     3     3     4   ar
     4     4     5   ar
     5     5     6   ar
     6     6     7   ar
     7     7     8   ar
     8     8     9   ar
     9     9    15    1
    10    15    16    1
    11    15    17    1
    12    15    18    1
    13     9    10   ar
    14    10    11   ar
    15    11    12    1
    16    12    13    1
    17    13    14    1
    18    14    19    1
    19    19    20    1
    20    20    21    1
    21    21    22    1
    22    22    23    1
    23    23    24    1
    24    24    25    1
    25    25    26    1
    26    14     2   am
    27    25    20    1
    28    11     3   ar
    29    26    22    1
    30    10     5   ar
@<TRIPOS>MOLECULE
*****
 26 30 0 0 0
SMALL
GASTEIGER

@<TRIPOS>ATOM
      1 O         140.1427  139.1546  158.0856 O.2     1  UNL1       -0.2666
      2 C         140.9054  138.7485  159.3117 C.2     1  UNL1        0.2834
      3 C         140.3242  138.9951  160.6724 C.ar    1  UNL1        0.1985
      4 N         139.0316  139.6143  161.1146 N.ar    1  UNL1       -0.2227
      5 C         138.9953  139.5909  162.6140 C.ar    1  UNL1        0.0988
      6 C         137.9698  140.0647  163.6007 C.ar    1  UNL1        0.0206
      7 C         138.2145  139.9049  165.0719 C.ar    1  UNL1        0.0016
      8 C         139.4848  139.2713  165.5564 C.ar    1  UNL1        0.0054
      9 C         140.5104  138.7974  164.5697 C.ar    1  UNL1        0.0887
     10 C         140.2657  138.9572  163.0985 C.ar    1  UNL1        0.0829
     11 N         141.0869  138.5890  161.8985 N.ar    1  UNL1       -0.3061
     12 C         142.4308  137.9364  161.7639 C.3     1  UNL1        0.1291
     13 C         143.0119  137.6898  160.4032 C.3     1  UNL1        0.1183
     14 N         142.2492  138.0959  159.1771 N.am    1  UNL1       -0.2716
     15 C         141.7807  138.1638  165.0542 C.3     1  UNL1        0.4200
     16 F         143.0511  137.5301  165.5387 F       1  UNL1       -0.1658
     17 F         142.3251  139.5184  165.3987 F       1  UNL1       -0.1658
     18 F         141.2364  136.8091  164.7097 F       1  UNL1       -0.1658
     19 C         142.8304  137.8493  157.8164 C.3     1  UNL1        0.0938
     20 C         142.4467  136.6192  157.0486 C.3     1  UNL1        0.0199
     21 C         141.3372  136.5170  156.0442 C.3     1  UNL1        0.0017
     22 C         141.3099  135.1099  155.5253 C.3     1  UNL1        0.0001
     23 C         141.9682  133.7660  155.6271 C.3     1  UNL1        0.0000
     24 C         143.0776  133.8681  156.6314 C.3     1  UNL1        0.0001
     25 C         143.1049  135.2752  157.1504 C.3     1  UNL1        0.0016
     26 C         142.0124  136.0427  156.4668 C.3     1  UNL1        0.0001
@<TRIPOS>BOND
     1     1     2    2
     2     2     3    1
     3     3     4   ar
     4     4     5   ar
     5     5     6   ar
     6     6     7   ar
     7     7     8   ar
     8     8     9   ar
     9     9    15    1
    10    15    16    1
    11    15    17    1
    12    15    18    1
    13     9    10   ar
    14    10    11   ar
    15    11    12    1
    16    12    13    1
    17    13    14    1
    18    14    19    1
    19    19    20    1
    20    20    21    1
    21    21    22    1
    22    22    23    1
    23    23    24    1
    24    24    25    1
    25    25    26    1
    26    14     2   am
    27    25    20    1
    28    11     3   ar
    29    26    22    1
    30    10     5   ar
@<TRIPOS>MOLECULE
*****
 26 30 0 0 0
SMALL
GASTEIGER

@<TRIPOS>ATOM
      1 O         139.3774  138.2798  158.2424 O.2     1  UNL1       -0.2666
      2 C         139.0251  139.4311  159.1370 C.2     1  UNL1        0.2834
      3 C         138.9205  139.2248  160.6191 C.ar    1  UNL1        0.1985
      4 N         139.1079  138.0101  161.4790 N.ar    1  UNL1       -0.2227
      5 C         138.8714  138.4108  162.9051 C.ar    1  UNL1        0.0988
      6 C         138.9168  137.6330  164.1869 C.ar    1  UNL1        0.0206
      7 C         138.6285  138.3176  165.4900 C.ar    1  UNL1        0.0016
      8 C         138.2949  139.7798  165.5114 C.ar    1  UNL1        0.0054
      9 C         138.2495  140.5576  164.2296 C.ar    1  UNL1        0.0887
     10 C         138.5378  139.8731  162.9265 C.ar    1  UNL1        0.0829
     11 N         138.5681  140.3761  161.5136 N.ar    1  UNL1       -0.3061
     12 C         138.3204  141.7338  160.9261 C.3     1  UNL1        0.1291
     13 C         138.4250  141.9402  159.4441 C.3     1  UNL1        0.1183
     14 N         138.7773  140.7889  158.5495 N.am    1  UNL1       -0.2716
     15 C         137.9159  142.0199  164.2510 C.3     1  UNL1        0.4200
     16 F         137.5823  143.4821  164.2724 F       1  UNL1       -0.1658
     17 F         136.6385  141.7392  163.5166 F       1  UNL1       -0.1658
     18 F         139.1933  142.3006  164.9854 F       1  UNL1       -0.1658
     19 C         138.8819  140.9953  157.0675 C.3     1  UNL1        0.0938
     20 C         137.7077  140.6950  156.1837 C.3     1  UNL1        0.0199
     21 C         136.3736  141.3794  156.2272 C.3     1  UNL1        0.0017
     22 C         135.5028  140.7650  155.1716 C.3     1  UNL1        0.0001
     23 C         135.4566  139.7277  154.0892 C.3     1  UNL1        0.0000
     24 C         136.7906  139.0433  154.0456 C.3     1  UNL1        0.0001
     25 C         137.6614  139.6577  155.1012 C.3     1  UNL1        0.0016
     26 C         136.8655  140.7217  155.7971 C.3     1  UNL1        0.0001
@<TRIPOS>BOND
     1     1     2    2
     2     2     3    1
     3     3     4   ar
     4     4     5   ar
     5     5     6   ar
     6     6     7   ar
     7     7     8   ar
     8     8     9   ar
     9     9    15    1
    10    15    16    1
    11    15    17    1
    12    15    18    1
    13     9    10   ar
    14    10    11   ar
    15    11    12    1
    16    12    13    1
    17    13    14    1
    18    14    19    1
    19    19    20    1
    20    20    21    1
    21    21    22    1
    22    22    23    1
    23    23    24    1
    24    24    25    1
    25    25    26    1
    26    14     2   am
    27    25    20    1
    28    11     3   ar
    29    26    22    1
    30    10     5   ar
