@<TRIPOS>MOLECULE
*****
 30 34 0 0 0
SMALL
GASTEIGER

@<TRIPOS>ATOM
      1 N         141.2777  142.2632  164.2088 N.pl3   1  UNL1       -0.2090
      2 N         141.7726  143.2037  163.1502 N.2     1  UNL1       -0.1821
      3 C         141.2968  142.6973  161.8209 C.2     1  UNL1        0.0783
      4 C         140.5077  141.4438  162.0579 C.3     1  UNL1        0.0737
      5 C         140.4959  141.1755  163.5336 C.3     1  UNL1        0.1244
      6 C         141.5632  143.3328  160.4885 C.2     1  UNL1        0.0143
      7 C         142.8332  143.0260  159.7517 C.2     1  UNL1       -0.0186
      8 C         143.0995  143.6615  158.4194 C.3     1  UNL1        0.0725
      9 C         142.0959  144.6038  157.8239 C.2     1  UNL1        0.0933
     10 N         142.0835  145.3754  156.5375 N.am    1  UNL1       -0.1431
     11 C         140.8059  146.1591  156.4794 C.2     1  UNL1        0.4298
     12 O         140.3802  147.0701  155.3663 O.2     1  UNL1       -0.2238
     13 O         140.0286  145.8719  157.7297 O.3     1  UNL1       -0.4079
     14 C         140.8259  144.9107  158.5606 C.2     1  UNL1        0.1617
     15 C         140.5595  144.2752  159.8930 C.2     1  UNL1        0.0396
     16 C         139.8209  140.0220  164.2147 C.ar    1  UNL1       -0.0019
     17 C         138.6648  140.2685  165.1382 C.ar    1  UNL1       -0.0003
     18 C         137.9898  139.1150  165.8192 C.ar    1  UNL1        0.0294
     19 C         138.4709  137.7151  165.5768 C.ar    1  UNL1        0.1401
     20 F         137.7959  136.5616  166.2578 F       1  UNL1       -0.2042
     21 C         139.6270  137.4686  164.6533 C.ar    1  UNL1        0.0294
     22 C         140.3020  138.6221  163.9722 C.ar    1  UNL1       -0.0003
     23 C         142.0095  142.6388  168.6329 C.ar    1  UNL1        0.0685
     24 C         143.1167  142.1922  167.7249 C.ar    1  UNL1        0.0116
     25 C         142.8727  142.0669  166.2501 C.ar    1  UNL1        0.0170
     26 C         141.5216  142.3884  165.6835 C.ar    1  UNL1        0.0694
     27 C         140.4144  142.8351  166.5916 C.ar    1  UNL1        0.0170
     28 C         140.6583  142.9604  168.0662 C.ar    1  UNL1        0.0116
     29 N         142.4974  142.8893  171.5824 N.1     1  UNL1       -0.1908
     30 C         142.2535  142.7641  170.1076 C.1     1  UNL1        0.1004
@<TRIPOS>BOND
     1    29    30    3
     2    30    23    1
     3    23    24   ar
     4    24    25   ar
     5    25    26   ar
     6    26     1    1
     7     1     2    1
     8     2     3    2
     9     3     6    1
    10     6     7    2
    11     7     8    1
    12     8     9    1
    13     9    10    2
    14    10    11    1
    15    11    12    2
    16    11    13    1
    17    13    14    1
    18    14    15    2
    19     3     4    1
    20     4     5    1
    21     5    16    1
    22    16    17   ar
    23    17    18   ar
    24    18    19   ar
    25    19    20    1
    26    19    21   ar
    27    21    22   ar
    28    26    27   ar
    29    27    28   ar
    30    28    23   ar
    31     5     1    1
    32    22    16   ar
    33    15     6    1
    34    14     9    1
@<TRIPOS>MOLECULE
*****
 30 34 0 0 0
SMALL
GASTEIGER

@<TRIPOS>ATOM
      1 N         141.1689  139.7410  163.3266 N.pl3   1  UNL1       -0.2090
      2 N         141.5113  138.7984  162.2111 N.2     1  UNL1       -0.1821
      3 C         140.9078  139.3366  160.9478 C.2     1  UNL1        0.0783
      4 C         140.1922  140.6117  161.2824 C.3     1  UNL1        0.0737
      5 C         140.3536  140.8617  162.7526 C.3     1  UNL1        0.1244
      6 C         141.0030  138.7096  159.5883 C.2     1  UNL1        0.0143
      7 C         142.3099  138.1497  159.1105 C.2     1  UNL1       -0.0186
      8 C         142.4051  137.5228  157.7512 C.3     1  UNL1        0.0725
      9 C         141.1933  137.4559  156.8696 C.2     1  UNL1        0.0933
     10 N         140.9842  136.9018  155.4914 N.am    1  UNL1       -0.1431
     11 C         139.5479  137.1193  155.1175 C.2     1  UNL1        0.4298
     12 O         138.9032  136.7187  153.8237 O.2     1  UNL1       -0.2238
     13 O         138.8695  137.8078  156.2646 O.3     1  UNL1       -0.4079
     14 C         139.8864  138.0158  157.3474 C.2     1  UNL1        0.1617
     15 C         139.7912  138.6427  158.7068 C.2     1  UNL1        0.0396
     16 C         139.7973  142.0276  163.5150 C.ar    1  UNL1       -0.0019
     17 C         138.3355  142.0777  163.8475 C.ar    1  UNL1       -0.0003
     18 C         137.7792  143.2436  164.6098 C.ar    1  UNL1        0.0294
     19 C         138.6849  144.3594  165.0398 C.ar    1  UNL1        0.1401
     20 F         138.1286  145.5253  165.8022 F       1  UNL1       -0.2042
     21 C         140.1467  144.3093  164.7073 C.ar    1  UNL1        0.0294
     22 C         140.7029  143.1434  163.9449 C.ar    1  UNL1       -0.0003
     23 C         142.3753  139.2864  167.6379 C.ar    1  UNL1        0.0685
     24 C         143.3191  138.8739  166.5476 C.ar    1  UNL1        0.0116
     25 C         142.9170  139.0254  165.1104 C.ar    1  UNL1        0.0170
     26 C         141.5710  139.5894  164.7637 C.ar    1  UNL1        0.0694
     27 C         140.6272  140.0019  165.8542 C.ar    1  UNL1        0.0170
     28 C         141.0292  139.8504  167.2912 C.ar    1  UNL1        0.0116
     29 N         143.1796  138.9833  170.5122 N.1     1  UNL1       -0.1908
     30 C         142.7775  139.1349  169.0750 C.1     1  UNL1        0.1004
@<TRIPOS>BOND
     1    29    30    3
     2    30    23    1
     3    23    24   ar
     4    24    25   ar
     5    25    26   ar
     6    26     1    1
     7     1     2    1
     8     2     3    2
     9     3     6    1
    10     6     7    2
    11     7     8    1
    12     8     9    1
    13     9    10    2
    14    10    11    1
    15    11    12    2
    16    11    13    1
    17    13    14    1
    18    14    15    2
    19     3     4    1
    20     4     5    1
    21     5    16    1
    22    16    17   ar
    23    17    18   ar
    24    18    19   ar
    25    19    20    1
    26    19    21   ar
    27    21    22   ar
    28    26    27   ar
    29    27    28   ar
    30    28    23   ar
    31     5     1    1
    32    22    16   ar
    33    15     6    1
    34    14     9    1
@<TRIPOS>MOLECULE
*****
 30 34 0 0 0
SMALL
GASTEIGER

@<TRIPOS>ATOM
      1 N         141.2041  140.0975  163.0638 N.pl3   1  UNL1       -0.2090
      2 N         140.8340  139.0935  162.0126 N.2     1  UNL1       -0.1821
      3 C         141.5015  139.4967  160.7312 C.2     1  UNL1        0.0783
      4 C         142.2840  140.7499  160.9905 C.3     1  UNL1        0.0737
      5 C         142.1002  141.1212  162.4322 C.3     1  UNL1        0.1244
      6 C         141.4036  138.7737  159.4206 C.2     1  UNL1        0.0143
      7 C         142.5643  137.9653  158.9214 C.2     1  UNL1       -0.0186
      8 C         142.4664  137.2424  157.6108 C.3     1  UNL1        0.0725
      9 C         141.2077  137.3278  156.7994 C.2     1  UNL1        0.0933
     10 N         140.8215  136.7278  155.4799 N.am    1  UNL1       -0.1431
     11 C         139.4221  137.1654  155.1636 C.2     1  UNL1        0.4298
     12 O         138.6388  136.7973  153.9384 O.2     1  UNL1       -0.2238
     13 O         138.9434  138.0358  156.2876 O.3     1  UNL1       -0.4079
     14 C         140.0470  138.1361  157.2985 C.2     1  UNL1        0.1617
     15 C         140.1449  138.8591  158.6091 C.2     1  UNL1        0.0396
     16 C         142.7062  142.3078  163.1211 C.ar    1  UNL1       -0.0019
     17 C         143.8952  142.1281  164.0178 C.ar    1  UNL1       -0.0003
     18 C         144.5011  143.3147  164.7068 C.ar    1  UNL1        0.0294
     19 C         143.9181  144.6811  164.4991 C.ar    1  UNL1        0.1401
     20 F         144.5240  145.8677  165.1881 F       1  UNL1       -0.2042
     21 C         142.7291  144.8608  163.6024 C.ar    1  UNL1        0.0294
     22 C         142.1231  143.6742  162.9134 C.ar    1  UNL1       -0.0003
     23 C         139.8615  140.0472  167.3585 C.ar    1  UNL1        0.0685
     24 C         141.2764  139.6908  167.0109 C.ar    1  UNL1        0.0116
     25 C         141.7240  139.7076  165.5793 C.ar    1  UNL1        0.0170
     26 C         140.7565  140.0807  164.4954 C.ar    1  UNL1        0.0694
     27 C         139.3416  140.4371  164.8431 C.ar    1  UNL1        0.0170
     28 C         138.8940  140.4203  166.2746 C.ar    1  UNL1        0.0116
     29 N         138.9664  140.0136  170.2217 N.1     1  UNL1       -0.1908
     30 C         139.4140  140.0304  168.7901 C.1     1  UNL1        0.1004
@<TRIPOS>BOND
     1    29    30    3
     2    30    23    1
     3    23    24   ar
     4    24    25   ar
     5    25    26   ar
     6    26     1    1
     7     1     2    1
     8     2     3    2
     9     3     6    1
    10     6     7    2
    11     7     8    1
    12     8     9    1
    13     9    10    2
    14    10    11    1
    15    11    12    2
    16    11    13    1
    17    13    14    1
    18    14    15    2
    19     3     4    1
    20     4     5    1
    21     5    16    1
    22    16    17   ar
    23    17    18   ar
    24    18    19   ar
    25    19    20    1
    26    19    21   ar
    27    21    22   ar
    28    26    27   ar
    29    27    28   ar
    30    28    23   ar
    31     5     1    1
    32    22    16   ar
    33    15     6    1
    34    14     9    1
@<TRIPOS>MOLECULE
*****
 30 34 0 0 0
SMALL
GASTEIGER

@<TRIPOS>ATOM
      1 N         140.4183  141.7309  163.6135 N.pl3   1  UNL1       -0.2090
      2 N         140.5556  142.5778  162.3832 N.2     1  UNL1       -0.1821
      3 C         139.6128  142.0443  161.3456 C.2     1  UNL1        0.0783
      4 C         138.8928  140.8676  161.9348 C.3     1  UNL1        0.0737
      5 C         139.3907  140.6739  163.3365 C.3     1  UNL1        0.1244
      6 C         139.4232  142.5913  159.9618 C.2     1  UNL1        0.0143
      7 C         138.5190  141.8869  158.9942 C.2     1  UNL1       -0.0186
      8 C         138.3295  142.4340  157.6105 C.3     1  UNL1        0.0725
      9 C         139.0441  143.6855  157.1944 C.2     1  UNL1        0.0933
     10 N         139.0529  144.4554  155.9070 N.am    1  UNL1       -0.1431
     11 C         139.9626  145.6356  156.0790 C.2     1  UNL1        0.4298
     12 O         140.2657  146.6741  155.0399 O.2     1  UNL1       -0.2238
     13 O         140.5159  145.5951  157.4727 O.3     1  UNL1       -0.4079
     14 C         139.9482  144.3899  158.1620 C.2     1  UNL1        0.1617
     15 C         140.1378  143.8428  159.5457 C.2     1  UNL1        0.0396
     16 C         138.9400  139.6100  164.2930 C.ar    1  UNL1       -0.0019
     17 C         139.2350  138.1679  164.0043 C.ar    1  UNL1       -0.0003
     18 C         138.7844  137.1040  164.9609 C.ar    1  UNL1        0.0294
     19 C         138.0387  137.4823  166.2062 C.ar    1  UNL1        0.1401
     20 F         137.5881  136.4184  167.1628 F       1  UNL1       -0.2042
     21 C         137.7437  138.9244  166.4950 C.ar    1  UNL1        0.0294
     22 C         138.1944  139.9882  165.5384 C.ar    1  UNL1       -0.0003
     23 C         142.6905  142.2669  167.4606 C.ar    1  UNL1        0.0685
     24 C         143.3937  141.7522  166.2398 C.ar    1  UNL1        0.0116
     25 C         142.6363  141.5736  164.9574 C.ar    1  UNL1        0.0170
     26 C         141.1757  141.9096  164.8959 C.ar    1  UNL1        0.0694
     27 C         140.4725  142.4243  166.1168 C.ar    1  UNL1        0.0170
     28 C         141.2298  142.6030  167.3991 C.ar    1  UNL1        0.0116
     29 N         144.2052  142.6243  170.0253 N.1     1  UNL1       -0.1908
     30 C         143.4479  142.4456  168.7429 C.1     1  UNL1        0.1004
@<TRIPOS>BOND
     1    29    30    3
     2    30    23    1
     3    23    24   ar
     4    24    25   ar
     5    25    26   ar
     6    26     1    1
     7     1     2    1
     8     2     3    2
     9     3     6    1
    10     6     7    2
    11     7     8    1
    12     8     9    1
    13     9    10    2
    14    10    11    1
    15    11    12    2
    16    11    13    1
    17    13    14    1
    18    14    15    2
    19     3     4    1
    20     4     5    1
    21     5    16    1
    22    16    17   ar
    23    17    18   ar
    24    18    19   ar
    25    19    20    1
    26    19    21   ar
    27    21    22   ar
    28    26    27   ar
    29    27    28   ar
    30    28    23   ar
    31     5     1    1
    32    22    16   ar
    33    15     6    1
    34    14     9    1
@<TRIPOS>MOLECULE
*****
 30 34 0 0 0
SMALL
GASTEIGER

@<TRIPOS>ATOM
      1 N         140.9861  142.4681  164.1952 N.pl3   1  UNL1       -0.2090
      2 N         141.3627  143.4858  163.1596 N.2     1  UNL1       -0.1821
      3 C         140.8566  143.0053  161.8319 C.2     1  UNL1        0.0783
      4 C         140.1673  141.6905  162.0468 C.3     1  UNL1        0.0737
      5 C         140.2473  141.3584  163.5074 C.3     1  UNL1        0.1244
      6 C         141.0126  143.7149  160.5195 C.2     1  UNL1        0.0143
      7 C         140.2600  144.9863  160.2603 C.2     1  UNL1       -0.0186
      8 C         140.4160  145.6959  158.9480 C.3     1  UNL1        0.0725
      9 C         141.3244  145.1340  157.8949 C.2     1  UNL1        0.0933
     10 N         141.6763  145.6081  156.5159 N.am    1  UNL1       -0.1431
     11 C         142.6463  144.6296  155.9229 C.2     1  UNL1        0.4298
     12 O         143.2609  144.7149  154.5572 O.2     1  UNL1       -0.2238
     13 O         142.8939  143.5509  156.9354 O.3     1  UNL1       -0.4079
     14 C         142.0770  143.8626  158.1541 C.2     1  UNL1        0.1617
     15 C         141.9210  143.1531  159.4664 C.2     1  UNL1        0.0396
     16 C         139.6869  140.1322  164.1648 C.ar    1  UNL1       -0.0019
     17 C         140.2480  138.7810  163.8339 C.ar    1  UNL1       -0.0003
     18 C         139.6876  137.5547  164.4913 C.ar    1  UNL1        0.0294
     19 C         138.5661  137.6796  165.4795 C.ar    1  UNL1        0.1401
     20 F         138.0057  136.4534  166.1369 F       1  UNL1       -0.2042
     21 C         138.0050  139.0308  165.8104 C.ar    1  UNL1        0.0294
     22 C         138.5654  140.2571  165.1530 C.ar    1  UNL1       -0.0003
     23 C         141.9104  142.7023  168.5929 C.ar    1  UNL1        0.0685
     24 C         140.5421  143.0611  168.0941 C.ar    1  UNL1        0.0116
     25 C         140.2340  142.9830  166.6281 C.ar    1  UNL1        0.0170
     26 C         141.2942  142.5462  165.6611 C.ar    1  UNL1        0.0694
     27 C         142.6625  142.1874  166.1601 C.ar    1  UNL1        0.0170
     28 C         142.9707  142.2655  167.6259 C.ar    1  UNL1        0.0116
     29 N         142.5266  142.8585  171.5248 N.1     1  UNL1       -0.1908
     30 C         142.2185  142.7804  170.0589 C.1     1  UNL1        0.1004
@<TRIPOS>BOND
     1    29    30    3
     2    30    23    1
     3    23    24   ar
     4    24    25   ar
     5    25    26   ar
     6    26     1    1
     7     1     2    1
     8     2     3    2
     9     3     6    1
    10     6     7    2
    11     7     8    1
    12     8     9    1
    13     9    10    2
    14    10    11    1
    15    11    12    2
    16    11    13    1
    17    13    14    1
    18    14    15    2
    19     3     4    1
    20     4     5    1
    21     5    16    1
    22    16    17   ar
    23    17    18   ar
    24    18    19   ar
    25    19    20    1
    26    19    21   ar
    27    21    22   ar
    28    26    27   ar
    29    27    28   ar
    30    28    23   ar
    31     5     1    1
    32    22    16   ar
    33    15     6    1
    34    14     9    1
@<TRIPOS>MOLECULE
*****
 30 34 0 0 0
SMALL
GASTEIGER

@<TRIPOS>ATOM
      1 N         142.5063  141.1768  163.0275 N.pl3   1  UNL1       -0.2090
      2 N         143.4420  140.7719  161.9273 N.2     1  UNL1       -0.1821
      3 C         143.0225  141.4849  160.6761 C.2     1  UNL1        0.0783
      4 C         141.8275  142.3306  161.0030 C.3     1  UNL1        0.0737
      5 C         141.5084  142.1402  162.4562 C.3     1  UNL1        0.1244
      6 C         143.6822  141.3722  159.3336 C.2     1  UNL1        0.0143
      7 C         143.1753  140.3795  158.3299 C.2     1  UNL1       -0.0186
      8 C         143.8350  140.2667  156.9875 C.3     1  UNL1        0.0725
      9 C         145.0016  141.1467  156.6488 C.2     1  UNL1        0.0933
     10 N         145.8478  141.2612  155.4155 N.am    1  UNL1       -0.1431
     11 C         146.8776  142.3247  155.6571 C.2     1  UNL1        0.4298
     12 O         147.9321  142.7678  154.6865 O.2     1  UNL1       -0.2238
     13 O         146.6679  142.8675  157.0397 O.3     1  UNL1       -0.4079
     14 C         145.5085  142.1395  157.6526 C.2     1  UNL1        0.1617
     15 C         144.8488  142.2522  158.9949 C.2     1  UNL1        0.0396
     16 C         140.3882  142.7977  163.2064 C.ar    1  UNL1       -0.0019
     17 C         139.0997  142.0620  163.4268 C.ar    1  UNL1       -0.0003
     18 C         137.9796  142.7195  164.1771 C.ar    1  UNL1        0.0294
     19 C         138.1479  144.1126  164.7069 C.ar    1  UNL1        0.1401
     20 F         137.0277  144.7701  165.4572 F       1  UNL1       -0.2042
     21 C         139.4364  144.8483  164.4865 C.ar    1  UNL1        0.0294
     22 C         140.5566  144.1908  163.7363 C.ar    1  UNL1       -0.0003
     23 C         142.6646  139.7518  167.2929 C.ar    1  UNL1        0.0685
     24 C         142.5204  138.7610  166.1761 C.ar    1  UNL1        0.0116
     25 C         142.4676  139.2360  164.7542 C.ar    1  UNL1        0.0170
     26 C         142.5590  140.7018  164.4493 C.ar    1  UNL1        0.0694
     27 C         142.7033  141.6926  165.5662 C.ar    1  UNL1        0.0170
     28 C         142.7560  141.2177  166.9880 C.ar    1  UNL1        0.0116
     29 N         142.7702  138.8017  170.1366 N.1     1  UNL1       -0.1908
     30 C         142.7174  139.2767  168.7147 C.1     1  UNL1        0.1004
@<TRIPOS>BOND
     1    29    30    3
     2    30    23    1
     3    23    24   ar
     4    24    25   ar
     5    25    26   ar
     6    26     1    1
     7     1     2    1
     8     2     3    2
     9     3     6    1
    10     6     7    2
    11     7     8    1
    12     8     9    1
    13     9    10    2
    14    10    11    1
    15    11    12    2
    16    11    13    1
    17    13    14    1
    18    14    15    2
    19     3     4    1
    20     4     5    1
    21     5    16    1
    22    16    17   ar
    23    17    18   ar
    24    18    19   ar
    25    19    20    1
    26    19    21   ar
    27    21    22   ar
    28    26    27   ar
    29    27    28   ar
    30    28    23   ar
    31     5     1    1
    32    22    16   ar
    33    15     6    1
    34    14     9    1
@<TRIPOS>MOLECULE
*****
 30 34 0 0 0
SMALL
GASTEIGER

@<TRIPOS>ATOM
      1 N         141.9620  140.0198  164.0820 N.pl3   1  UNL1       -0.2090
      2 N         142.7472  140.1161  162.8076 N.2     1  UNL1       -0.1821
      3 C         142.0257  139.3245  161.7576 C.2     1  UNL1        0.0783
      4 C         140.7945  138.7388  162.3830 C.3     1  UNL1        0.0737
      5 C         140.7551  139.1685  163.8195 C.3     1  UNL1        0.1244
      6 C         142.4593  139.1492  160.3323 C.2     1  UNL1        0.0143
      7 C         143.0437  140.3068  159.5783 C.2     1  UNL1       -0.0186
      8 C         143.4772  140.1315  158.1531 C.3     1  UNL1        0.0725
      9 C         143.3263  138.7986  157.4818 C.2     1  UNL1        0.0933
     10 N         143.6622  138.3282  156.0976 N.am    1  UNL1       -0.1431
     11 C         143.2854  136.8799  155.9961 C.2     1  UNL1        0.4298
     12 O         143.4486  136.0090  154.7856 O.2     1  UNL1       -0.2238
     13 O         142.7166  136.4552  157.3176 O.3     1  UNL1       -0.4079
     14 C         142.7420  137.6410  158.2358 C.2     1  UNL1        0.1617
     15 C         142.3085  137.8163  159.6610 C.2     1  UNL1        0.0396
     16 C         139.6949  138.8100  164.8183 C.ar    1  UNL1       -0.0019
     17 C         139.0288  139.8858  165.6239 C.ar    1  UNL1       -0.0003
     18 C         137.9687  139.5272  166.6227 C.ar    1  UNL1        0.0294
     19 C         137.5747  138.0929  166.8158 C.ar    1  UNL1        0.1401
     20 F         136.5145  137.7343  167.8146 F       1  UNL1       -0.2042
     21 C         138.2407  137.0170  166.0102 C.ar    1  UNL1        0.0294
     22 C         139.3009  137.3756  165.0114 C.ar    1  UNL1       -0.0003
     23 C         143.0378  141.9461  168.0039 C.ar    1  UNL1        0.0685
     24 C         142.7869  140.4688  167.9379 C.ar    1  UNL1        0.0116
     25 C         142.4283  139.8266  166.6306 C.ar    1  UNL1        0.0170
     26 C         142.3206  140.6619  165.3893 C.ar    1  UNL1        0.0694
     27 C         142.5715  142.1393  165.4554 C.ar    1  UNL1        0.0170
     28 C         142.9301  142.7814  166.7626 C.ar    1  UNL1        0.0116
     29 N         143.7550  143.2303  170.6186 N.1     1  UNL1       -0.1908
     30 C         143.3964  142.5882  169.3112 C.1     1  UNL1        0.1004
@<TRIPOS>BOND
     1    29    30    3
     2    30    23    1
     3    23    24   ar
     4    24    25   ar
     5    25    26   ar
     6    26     1    1
     7     1     2    1
     8     2     3    2
     9     3     6    1
    10     6     7    2
    11     7     8    1
    12     8     9    1
    13     9    10    2
    14    10    11    1
    15    11    12    2
    16    11    13    1
    17    13    14    1
    18    14    15    2
    19     3     4    1
    20     4     5    1
    21     5    16    1
    22    16    17   ar
    23    17    18   ar
    24    18    19   ar
    25    19    20    1
    26    19    21   ar
    27    21    22   ar
    28    26    27   ar
    29    27    28   ar
    30    28    23   ar
    31     5     1    1
    32    22    16   ar
    33    15     6    1
    34    14     9    1
@<TRIPOS>MOLECULE
*****
 30 34 0 0 0
SMALL
GASTEIGER

@<TRIPOS>ATOM
      1 N         140.5141  140.5698  162.0856 N.pl3   1  UNL1       -0.2090
      2 N         140.2603  139.9504  163.4279 N.2     1  UNL1       -0.1821
      3 C         140.2364  141.0493  164.4485 C.2     1  UNL1        0.0783
      4 C         140.4755  142.3480  163.7369 C.3     1  UNL1        0.0737
      5 C         140.6471  142.0517  162.2766 C.3     1  UNL1        0.1244
      6 C         140.0126  140.8795  165.9220 C.2     1  UNL1        0.0143
      7 C         139.1283  139.7769  166.4241 C.2     1  UNL1       -0.0186
      8 C         138.9046  139.6071  167.8976 C.3     1  UNL1        0.0725
      9 C         139.5653  140.5399  168.8689 C.2     1  UNL1        0.0933
     10 N         139.5319  140.6181  170.3665 N.am    1  UNL1       -0.1431
     11 C         140.3957  141.7690  170.7899 C.2     1  UNL1        0.4298
     12 O         140.6481  142.2095  172.2015 O.2     1  UNL1       -0.2238
     13 O         140.9629  142.4020  169.5540 O.3     1  UNL1       -0.4079
     14 C         140.4497  141.6424  168.3668 C.2     1  UNL1        0.1617
     15 C         140.6734  141.8122  166.8933 C.2     1  UNL1        0.0396
     16 C         140.9063  143.0601  161.1968 C.ar    1  UNL1       -0.0019
     17 C         140.0322  144.2734  161.0782 C.ar    1  UNL1       -0.0003
     18 C         140.2914  145.2818  159.9984 C.ar    1  UNL1        0.0294
     19 C         141.4246  145.0769  159.0373 C.ar    1  UNL1        0.1401
     20 F         141.6838  146.0853  157.9575 F       1  UNL1       -0.2042
     21 C         142.2987  143.8637  159.1559 C.ar    1  UNL1        0.0294
     22 C         142.0395  142.8553  160.2356 C.ar    1  UNL1       -0.0003
     23 C         140.8226  138.3691  158.1726 C.ar    1  UNL1        0.0685
     24 C         141.9765  138.3605  159.1308 C.ar    1  UNL1        0.0116
     25 C         141.8737  139.0941  160.4351 C.ar    1  UNL1        0.0170
     26 C         140.6169  139.8362  160.7812 C.ar    1  UNL1        0.0694
     27 C         139.4630  139.8448  159.8229 C.ar    1  UNL1        0.0170
     28 C         139.5657  139.1113  158.5186 C.ar    1  UNL1        0.0116
     29 N         141.0282  136.9019  155.5639 N.1     1  UNL1       -0.1908
     30 C         140.9254  137.6355  156.8682 C.1     1  UNL1        0.1004
@<TRIPOS>BOND
     1    29    30    3
     2    30    23    1
     3    23    24   ar
     4    24    25   ar
     5    25    26   ar
     6    26     1    1
     7     1     2    1
     8     2     3    2
     9     3     6    1
    10     6     7    2
    11     7     8    1
    12     8     9    1
    13     9    10    2
    14    10    11    1
    15    11    12    2
    16    11    13    1
    17    13    14    1
    18    14    15    2
    19     3     4    1
    20     4     5    1
    21     5    16    1
    22    16    17   ar
    23    17    18   ar
    24    18    19   ar
    25    19    20    1
    26    19    21   ar
    27    21    22   ar
    28    26    27   ar
    29    27    28   ar
    30    28    23   ar
    31     5     1    1
    32    22    16   ar
    33    15     6    1
    34    14     9    1
@<TRIPOS>MOLECULE
*****
 30 34 0 0 0
SMALL
GASTEIGER

@<TRIPOS>ATOM
      1 N         139.9249  140.4863  161.3575 N.pl3   1  UNL1       -0.2090
      2 N         139.7736  139.8675  159.9995 N.2     1  UNL1       -0.1821
      3 C         138.8551  140.7374  159.1935 C.2     1  UNL1        0.0783
      4 C         138.4388  141.8939  160.0533 C.3     1  UNL1        0.0737
      5 C         139.0999  141.7387  161.3908 C.3     1  UNL1        0.1244
      6 C         138.4280  140.4937  157.7763 C.2     1  UNL1        0.0143
      7 C         139.2631  139.6287  156.8795 C.2     1  UNL1       -0.0186
      8 C         138.8359  139.3850  155.4625 C.3     1  UNL1        0.0725
      9 C         137.5737  140.0064  154.9422 C.2     1  UNL1        0.0933
     10 N         136.9041  139.9464  153.6012 N.am    1  UNL1       -0.1431
     11 C         135.6552  140.7744  153.6693 C.2     1  UNL1        0.4298
     12 O         134.6798  140.9925  152.5508 O.2     1  UNL1       -0.2238
     13 O         135.5529  141.3461  155.0523 O.3     1  UNL1       -0.4079
     14 C         136.7386  140.8714  155.8390 C.2     1  UNL1        0.1617
     15 C         137.1658  141.1151  157.2561 C.2     1  UNL1        0.0396
     16 C         138.9605  142.6720  162.5568 C.ar    1  UNL1       -0.0019
     17 C         139.9884  143.7393  162.7902 C.ar    1  UNL1       -0.0003
     18 C         139.8490  144.6726  163.9562 C.ar    1  UNL1        0.0294
     19 C         138.6818  144.5385  164.8888 C.ar    1  UNL1        0.1401
     20 F         138.5425  145.4718  166.0548 F       1  UNL1       -0.2042
     21 C         137.6540  143.4712  164.6554 C.ar    1  UNL1        0.0294
     22 C         137.7934  142.5379  163.4894 C.ar    1  UNL1       -0.0003
     23 C         142.4162  138.8696  164.7382 C.ar    1  UNL1        0.0685
     24 C         142.8938  140.0568  163.9558 C.ar    1  UNL1        0.0116
     25 C         142.0633  140.5957  162.8289 C.ar    1  UNL1        0.0170
     26 C         140.7553  139.9474  162.4845 C.ar    1  UNL1        0.0694
     27 C         140.2777  138.7601  163.2669 C.ar    1  UNL1        0.0170
     28 C         141.1081  138.2211  164.3938 C.ar    1  UNL1        0.0116
     29 N         144.0771  137.7917  166.9921 N.1     1  UNL1       -0.1908
     30 C         143.2466  138.3306  165.8651 C.1     1  UNL1        0.1004
@<TRIPOS>BOND
     1    29    30    3
     2    30    23    1
     3    23    24   ar
     4    24    25   ar
     5    25    26   ar
     6    26     1    1
     7     1     2    1
     8     2     3    2
     9     3     6    1
    10     6     7    2
    11     7     8    1
    12     8     9    1
    13     9    10    2
    14    10    11    1
    15    11    12    2
    16    11    13    1
    17    13    14    1
    18    14    15    2
    19     3     4    1
    20     4     5    1
    21     5    16    1
    22    16    17   ar
    23    17    18   ar
    24    18    19   ar
    25    19    20    1
    26    19    21   ar
    27    21    22   ar
    28    26    27   ar
    29    27    28   ar
    30    28    23   ar
    31     5     1    1
    32    22    16   ar
    33    15     6    1
    34    14     9    1
