@<TRIPOS>MOLECULE
*****
 39 41 0 0 0
SMALL
GASTEIGER

@<TRIPOS>ATOM
      1 C         139.3782  139.7590  160.4481 C.ar    1  UNL1        0.0597
      2 C         139.2542  138.8503  161.6351 C.ar    1  UNL1        0.0422
      3 C         138.5789  139.3353  162.8835 C.ar    1  UNL1        0.1485
      4 C         138.0276  140.7290  162.9451 C.ar    1  UNL1        0.0743
      5 C         138.1516  141.6377  161.7582 C.ar    1  UNL1        0.1416
      6 C         138.8269  141.1527  160.5097 C.ar    1  UNL1        0.0416
      7 N         141.5483  139.3265  159.0866 N.am    1  UNL1       -0.2644
      8 C         140.0535  139.2741  159.1996 C.2     1  UNL1        0.2508
      9 O         139.2339  138.7367  158.0640 O.2     1  UNL1       -0.2698
     10 H         142.0862  139.6792  159.8320 H       1  UNL1        0.1566
     11 N         143.3966  137.4348  156.2457 N.ar    1  UNL1       -0.2357
     12 C         143.1288  138.7560  155.5878 C.ar    1  UNL1        0.0988
     13 C         142.4038  139.6254  156.5719 C.ar    1  UNL1        0.0565
     14 C         142.2236  138.8416  157.8381 C.ar    1  UNL1        0.1557
     15 N         142.8371  137.4877  157.6365 N.ar    1  UNL1       -0.1534
     16 C         144.1003  136.2660  155.6224 C.3     1  UNL1        0.2423
     17 P         143.4161  134.9335  155.5436 P.3     1  UNL1        0.3677
     18 O         142.7319  133.6010  155.4648 O.2     1  UNL1       -0.2557
     19 O         142.6525  135.3968  154.3385 O.3     1  UNL1       -0.2928
     20 C         140.3046  136.2509  155.0511 C.3     1  UNL1        0.0352
     21 C         141.1583  135.2702  154.3031 C.3     1  UNL1        0.1515
     22 O         144.1797  134.4702  156.7487 O.3     1  UNL1       -0.2928
     23 C         143.9134  133.1129  157.3293 C.3     1  UNL1        0.1515
     24 C         145.0437  132.3025  157.8910 C.3     1  UNL1        0.0352
     25 O         138.4548  138.4266  164.0706 O.3     1  UNL1       -0.4534
     26 C         138.8744  138.9055  165.4287 C.ar    1  UNL1        0.1454
     27 C         140.2516  139.4632  165.6350 C.ar    1  UNL1        0.0388
     28 C         140.6712  139.9421  166.9931 C.ar    1  UNL1        0.0215
     29 C         139.7136  139.8632  168.1451 C.ar    1  UNL1        0.1059
     30 C         138.3365  139.3055  167.9388 C.ar    1  UNL1        0.0215
     31 C         137.9169  138.8266  166.5807 C.ar    1  UNL1        0.0388
     32 S         140.1332  140.3420  169.5033 S.O2    1  UNL1        0.0105
     33 C         140.5528  140.8209  170.8614 C.3     1  UNL1        0.1816
     34 O         141.4974  140.6630  168.9686 O.2     1  UNL1       -0.1686
     35 O         138.7689  140.0211  170.0379 O.2     1  UNL1       -0.1686
     36 O         137.6003  143.0313  161.8197 O.3     1  UNL1       -0.4791
     37 C         138.2060  144.0369  162.7534 C.3     1  UNL1        0.1661
     38 C         139.2897  144.9535  162.2681 C.3     1  UNL1        0.0472
     39 C         137.7280  144.1260  164.1725 C.3     1  UNL1        0.0472
@<TRIPOS>BOND
     1    20    21    1
     2    21    19    1
     3    19    17    1
     4    17    18    2
     5    17    16    1
     6    16    11    1
     7    11    12   ar
     8    12    13   ar
     9    13    14   ar
    10    14     7    1
    11     7     8   am
    12     8     9    2
    13     8     1    1
    14     1     2   ar
    15     2     3   ar
    16     3    25    1
    17    25    26    1
    18    26    27   ar
    19    27    28   ar
    20    28    29   ar
    21    29    32    1
    22    32    33    1
    23    32    34    2
    24    32    35    2
    25    29    30   ar
    26    30    31   ar
    27     3     4   ar
    28     4     5   ar
    29     5    36    1
    30    36    37    1
    31    37    38    1
    32    37    39    1
    33     5     6   ar
    34    14    15   ar
    35    17    22    1
    36    22    23    1
    37    23    24    1
    38    15    11   ar
    39     6     1   ar
    40    31    26   ar
    41     7    10    1
@<TRIPOS>MOLECULE
*****
 39 41 0 0 0
SMALL
GASTEIGER

@<TRIPOS>ATOM
      1 C         139.3799  139.7546  160.4850 C.ar    1  UNL1        0.0597
      2 C         139.2611  138.8650  161.6868 C.ar    1  UNL1        0.0422
      3 C         138.5869  139.3681  162.9286 C.ar    1  UNL1        0.1485
      4 C         138.0313  140.7609  162.9686 C.ar    1  UNL1        0.0743
      5 C         138.1501  141.6505  161.7668 C.ar    1  UNL1        0.1416
      6 C         138.8244  141.1474  160.5250 C.ar    1  UNL1        0.0416
      7 N         141.5506  139.2721  159.1413 N.am    1  UNL1       -0.2644
      8 C         140.0542  139.2515  159.2431 C.2     1  UNL1        0.2508
      9 O         139.2321  138.7278  158.1030 O.2     1  UNL1       -0.2698
     10 H         142.0902  139.6159  159.8896 H       1  UNL1        0.1566
     11 N         143.3774  137.3318  156.3194 N.ar    1  UNL1       -0.2357
     12 C         143.1476  138.6580  155.6573 C.ar    1  UNL1        0.0988
     13 C         142.4352  139.5463  156.6339 C.ar    1  UNL1        0.0565
     14 C         142.2249  138.7690  157.8994 C.ar    1  UNL1        0.1557
     15 N         142.8072  137.4004  157.7050 N.ar    1  UNL1       -0.1534
     16 C         144.0580  136.1453  155.7039 C.3     1  UNL1        0.2423
     17 P         143.3618  134.8171  155.6663 P.3     1  UNL1        0.3677
     18 O         142.6656  133.4891  155.6287 O.2     1  UNL1       -0.2557
     19 O         144.0956  134.3974  156.9054 O.3     1  UNL1       -0.2928
     20 C         145.1859  132.2300  157.8346 C.3     1  UNL1        0.0352
     21 C         143.9644  132.9928  157.4151 C.3     1  UNL1        0.1515
     22 O         142.6281  135.2370  154.4271 O.3     1  UNL1       -0.2928
     23 C         141.1286  135.2102  154.3981 C.3     1  UNL1        0.1515
     24 C         140.3566  136.4949  154.3361 C.3     1  UNL1        0.0352
     25 O         138.4680  138.4785  164.1305 O.3     1  UNL1       -0.4534
     26 C         138.9121  138.9719  165.4756 C.ar    1  UNL1        0.1454
     27 C         140.2963  139.5219  165.6532 C.ar    1  UNL1        0.0388
     28 C         140.7404  140.0153  166.9984 C.ar    1  UNL1        0.0215
     29 C         139.8003  139.9586  168.1659 C.ar    1  UNL1        0.1059
     30 C         138.4161  139.4086  167.9882 C.ar    1  UNL1        0.0215
     31 C         137.9721  138.9152  166.6431 C.ar    1  UNL1        0.0388
     32 S         140.2443  140.4520  169.5110 S.O2    1  UNL1        0.0105
     33 C         140.6884  140.9454  170.8561 C.3     1  UNL1        0.1816
     34 O         139.0128  139.8638  170.1333 O.2     1  UNL1       -0.1686
     35 O         141.4759  141.0403  168.8887 O.2     1  UNL1       -0.1686
     36 O         137.5946  143.0433  161.8068 O.3     1  UNL1       -0.4791
     37 C         138.1529  144.0460  162.7726 C.3     1  UNL1        0.1661
     38 C         139.1618  145.0540  162.3077 C.3     1  UNL1        0.0472
     39 C         137.7024  144.0407  164.2034 C.3     1  UNL1        0.0472
@<TRIPOS>BOND
     1    20    21    1
     2    21    19    1
     3    19    17    1
     4    17    18    2
     5    17    16    1
     6    16    11    1
     7    11    12   ar
     8    12    13   ar
     9    13    14   ar
    10    14     7    1
    11     7     8   am
    12     8     9    2
    13     8     1    1
    14     1     2   ar
    15     2     3   ar
    16     3    25    1
    17    25    26    1
    18    26    27   ar
    19    27    28   ar
    20    28    29   ar
    21    29    32    1
    22    32    33    1
    23    32    34    2
    24    32    35    2
    25    29    30   ar
    26    30    31   ar
    27     3     4   ar
    28     4     5   ar
    29     5    36    1
    30    36    37    1
    31    37    38    1
    32    37    39    1
    33     5     6   ar
    34    14    15   ar
    35    17    22    1
    36    22    23    1
    37    23    24    1
    38    15    11   ar
    39     6     1   ar
    40    31    26   ar
    41     7    10    1
@<TRIPOS>MOLECULE
*****
 39 41 0 0 0
SMALL
GASTEIGER

@<TRIPOS>ATOM
      1 C         139.2310  140.4054  160.8165 C.ar    1  UNL1        0.0597
      2 C         138.9783  139.4769  161.9671 C.ar    1  UNL1        0.0422
      3 C         138.3410  139.9945  163.2225 C.ar    1  UNL1        0.1485
      4 C         137.9564  141.4406  163.3272 C.ar    1  UNL1        0.0743
      5 C         138.2092  142.3690  162.1766 C.ar    1  UNL1        0.1416
      6 C         138.8464  141.8515  160.9212 C.ar    1  UNL1        0.0416
      7 N         139.0182  139.2876  158.4808 N.am    1  UNL1       -0.2644
      8 C         139.8683  139.8878  159.5611 C.2     1  UNL1        0.2508
      9 O         141.3558  139.9705  159.3860 O.2     1  UNL1       -0.2698
     10 H         138.0420  139.2333  158.5958 H       1  UNL1        0.1566
     11 N         140.7079  137.2969  155.6089 N.ar    1  UNL1       -0.2357
     12 C         140.5646  138.6504  154.9782 C.ar    1  UNL1        0.0988
     13 C         139.9142  139.5608  155.9773 C.ar    1  UNL1        0.0565
     14 C         139.6556  138.7700  157.2254 C.ar    1  UNL1        0.1557
     15 N         140.1461  137.3709  156.9977 N.ar    1  UNL1       -0.1534
     16 C         141.3077  136.0828  154.9640 C.3     1  UNL1        0.2423
     17 P         142.0754  135.0955  155.7922 P.3     1  UNL1        0.3677
     18 O         142.8431  134.1082  156.6204 O.2     1  UNL1       -0.2557
     19 O         142.9905  136.1919  156.2511 O.3     1  UNL1       -0.2928
     20 C         144.5448  137.9928  155.2067 C.3     1  UNL1        0.0352
     21 C         144.1972  136.5518  155.4360 C.3     1  UNL1        0.1515
     22 O         141.1602  133.9991  155.3333 O.3     1  UNL1       -0.2928
     23 C         141.5988  132.5677  155.4270 C.3     1  UNL1        0.1515
     24 C         141.1058  131.5652  154.4260 C.3     1  UNL1        0.0352
     25 O         138.0882  139.0660  164.3732 O.3     1  UNL1       -0.4534
     26 C         138.6174  139.3998  165.7364 C.ar    1  UNL1        0.1454
     27 C         137.8276  139.0335  166.9580 C.ar    1  UNL1        0.0388
     28 C         138.3568  139.3673  168.3212 C.ar    1  UNL1        0.0215
     29 C         139.6759  140.0674  168.4630 C.ar    1  UNL1        0.1059
     30 C         140.4657  140.4336  167.2415 C.ar    1  UNL1        0.0215
     31 C         139.9365  140.0998  165.8782 C.ar    1  UNL1        0.0388
     32 S         140.2051  140.4012  169.8262 S.O2    1  UNL1        0.0105
     33 C         140.7344  140.7350  171.1895 C.3     1  UNL1        0.1816
     34 O         141.5749  139.9606  169.4023 O.2     1  UNL1       -0.1686
     35 O         138.8354  140.8418  170.2501 O.2     1  UNL1       -0.1686
     36 O         137.8246  143.8151  162.2813 O.3     1  UNL1       -0.4791
     37 C         138.7511  144.7916  162.9431 C.3     1  UNL1        0.1661
     38 C         139.5750  145.7273  162.1090 C.3     1  UNL1        0.0472
     39 C         138.8539  144.8323  164.4390 C.3     1  UNL1        0.0472
@<TRIPOS>BOND
     1    20    21    1
     2    21    19    1
     3    19    17    1
     4    17    18    2
     5    17    16    1
     6    16    11    1
     7    11    12   ar
     8    12    13   ar
     9    13    14   ar
    10    14     7    1
    11     7     8   am
    12     8     9    2
    13     8     1    1
    14     1     2   ar
    15     2     3   ar
    16     3    25    1
    17    25    26    1
    18    26    27   ar
    19    27    28   ar
    20    28    29   ar
    21    29    32    1
    22    32    33    1
    23    32    34    2
    24    32    35    2
    25    29    30   ar
    26    30    31   ar
    27     3     4   ar
    28     4     5   ar
    29     5    36    1
    30    36    37    1
    31    37    38    1
    32    37    39    1
    33     5     6   ar
    34    14    15   ar
    35    17    22    1
    36    22    23    1
    37    23    24    1
    38    15    11   ar
    39     6     1   ar
    40    31    26   ar
    41     7    10    1
@<TRIPOS>MOLECULE
*****
 39 41 0 0 0
SMALL
GASTEIGER

@<TRIPOS>ATOM
      1 C         141.9327  139.1068  160.8526 C.ar    1  UNL1        0.0597
      2 C         141.2196  138.4862  162.0172 C.ar    1  UNL1        0.0422
      3 C         140.7165  139.3500  163.1354 C.ar    1  UNL1        0.1485
      4 C         140.9264  140.8346  163.0891 C.ar    1  UNL1        0.0743
      5 C         141.6394  141.4552  161.9245 C.ar    1  UNL1        0.1416
      6 C         142.1425  140.5913  160.8062 C.ar    1  UNL1        0.0416
      7 N         142.0651  138.5606  158.3160 N.am    1  UNL1       -0.2644
      8 C         142.4359  138.2429  159.7343 C.2     1  UNL1        0.2508
      9 O         143.3098  137.0613  160.0343 O.2     1  UNL1       -0.2698
     10 H         141.4914  139.3362  158.1191 H       1  UNL1        0.1566
     11 N         142.9205  135.7996  155.7255 N.ar    1  UNL1       -0.2357
     12 C         143.7647  136.9353  155.2281 C.ar    1  UNL1        0.0988
     13 C         143.5470  138.1079  156.1380 C.ar    1  UNL1        0.0565
     14 C         142.5683  137.6967  157.1977 C.ar    1  UNL1        0.1557
     15 N         142.1811  136.2702  156.9428 N.ar    1  UNL1       -0.1534
     16 C         142.8314  134.4332  155.1132 C.3     1  UNL1        0.2423
     17 P         142.6795  133.2264  155.9910 P.3     1  UNL1        0.3677
     18 O         142.5277  132.0195  156.8688 O.2     1  UNL1       -0.2557
     19 O         141.2533  133.0841  155.5488 O.3     1  UNL1       -0.2928
     20 C         140.2612  130.9321  154.4836 C.3     1  UNL1        0.0352
     21 C         140.9227  132.2699  154.3331 C.3     1  UNL1        0.1515
     22 O         144.1058  133.3687  156.4332 O.3     1  UNL1       -0.2928
     23 C         144.4763  133.1138  157.8642 C.3     1  UNL1        0.1515
     24 C         145.6839  132.2859  158.1903 C.3     1  UNL1        0.0352
     25 O         140.0034  138.7294  164.3001 O.3     1  UNL1       -0.4534
     26 C         140.3196  139.1750  165.6971 C.ar    1  UNL1        0.1454
     27 C         139.2137  139.5995  166.6173 C.ar    1  UNL1        0.0388
     28 C         139.5299  140.0451  168.0143 C.ar    1  UNL1        0.0215
     29 C         140.9521  140.0661  168.4910 C.ar    1  UNL1        0.1059
     30 C         142.0579  139.6416  167.5708 C.ar    1  UNL1        0.0215
     31 C         141.7417  139.1960  166.1738 C.ar    1  UNL1        0.0388
     32 S         141.2683  140.5117  169.8879 S.O2    1  UNL1        0.0105
     33 C         141.5845  140.9573  171.2849 C.3     1  UNL1        0.1816
     34 O         142.3309  141.4268  169.3555 O.2     1  UNL1       -0.1686
     35 O         140.2057  139.5966  170.4204 O.2     1  UNL1       -0.1686
     36 O         141.8492  142.9397  161.8781 O.3     1  UNL1       -0.4791
     37 C         140.8154  143.8617  162.4536 C.3     1  UNL1        0.1661
     38 C         141.1099  144.6288  163.7085 C.3     1  UNL1        0.0472
     39 C         139.4871  144.0165  161.7742 C.3     1  UNL1        0.0472
@<TRIPOS>BOND
     1    20    21    1
     2    21    19    1
     3    19    17    1
     4    17    18    2
     5    17    16    1
     6    16    11    1
     7    11    12   ar
     8    12    13   ar
     9    13    14   ar
    10    14     7    1
    11     7     8   am
    12     8     9    2
    13     8     1    1
    14     1     2   ar
    15     2     3   ar
    16     3    25    1
    17    25    26    1
    18    26    27   ar
    19    27    28   ar
    20    28    29   ar
    21    29    32    1
    22    32    33    1
    23    32    34    2
    24    32    35    2
    25    29    30   ar
    26    30    31   ar
    27     3     4   ar
    28     4     5   ar
    29     5    36    1
    30    36    37    1
    31    37    38    1
    32    37    39    1
    33     5     6   ar
    34    14    15   ar
    35    17    22    1
    36    22    23    1
    37    23    24    1
    38    15    11   ar
    39     6     1   ar
    40    31    26   ar
    41     7    10    1
@<TRIPOS>MOLECULE
*****
 39 41 0 0 0
SMALL
GASTEIGER

@<TRIPOS>ATOM
      1 C         143.2364  140.4589  160.2102 C.ar    1  UNL1        0.0597
      2 C         143.9205  140.4481  161.5450 C.ar    1  UNL1        0.0422
      3 C         144.1379  141.7337  162.2867 C.ar    1  UNL1        0.1485
      4 C         143.6712  143.0299  161.6936 C.ar    1  UNL1        0.0743
      5 C         142.9870  143.0407  160.3587 C.ar    1  UNL1        0.1416
      6 C         142.7696  141.7552  159.6171 C.ar    1  UNL1        0.0416
      7 N         142.6933  139.1980  158.0045 N.am    1  UNL1       -0.2644
      8 C         143.0189  139.1733  159.4685 C.2     1  UNL1        0.2508
      9 O         143.1272  137.8632  160.1908 O.2     1  UNL1       -0.2698
     10 H         142.6223  140.0579  157.5304 H       1  UNL1        0.1566
     11 N         142.8734  135.7802  156.1737 N.ar    1  UNL1       -0.2357
     12 C         141.4090  136.0882  156.0690 C.ar    1  UNL1        0.0988
     13 C         141.1634  137.4061  156.7421 C.ar    1  UNL1        0.0565
     14 C         142.4759  137.9124  157.2627 C.ar    1  UNL1        0.1557
     15 N         143.5327  136.9076  156.9114 N.ar    1  UNL1       -0.1534
     16 C         143.5581  134.5592  155.6351 C.3     1  UNL1        0.2423
     17 P         142.8552  133.2342  155.6563 P.3     1  UNL1        0.3677
     18 O         142.1523  131.9093  155.6774 O.2     1  UNL1       -0.2557
     19 O         143.0450  133.1571  157.1422 O.3     1  UNL1       -0.2928
     20 C         145.1646  131.8812  157.9354 C.3     1  UNL1        0.0352
     21 C         144.4278  133.1704  157.7234 C.3     1  UNL1        0.1515
     22 O         142.6654  133.3113  154.1703 O.3     1  UNL1       -0.2928
     23 C         141.2826  133.2992  153.5892 C.3     1  UNL1        0.1515
     24 C         140.8810  134.3405  152.5870 C.3     1  UNL1        0.0352
     25 O         144.8221  141.7230  163.6216 O.3     1  UNL1       -0.4534
     26 C         144.0589  141.3326  164.8524 C.ar    1  UNL1        0.1454
     27 C         143.7441  139.8893  165.1134 C.ar    1  UNL1        0.0388
     28 C         142.9808  139.4989  166.3443 C.ar    1  UNL1        0.0215
     29 C         142.5323  140.5517  167.3141 C.ar    1  UNL1        0.1059
     30 C         142.8471  141.9949  167.0531 C.ar    1  UNL1        0.0215
     31 C         143.6104  142.3853  165.8222 C.ar    1  UNL1        0.0388
     32 S         141.7691  140.1613  168.5450 S.O2    1  UNL1        0.0105
     33 C         141.0058  139.7709  169.7758 C.3     1  UNL1        0.1816
     34 O         143.0563  139.8183  169.2344 O.2     1  UNL1       -0.1686
     35 O         140.4818  140.5044  167.8556 O.2     1  UNL1       -0.1686
     36 O         142.5203  144.3370  159.7656 O.3     1  UNL1       -0.4791
     37 C         141.0665  144.7034  159.8136 C.3     1  UNL1        0.1661
     38 C         140.4424  145.4474  158.6705 C.3     1  UNL1        0.0472
     39 C         140.2368  144.3257  161.0049 C.3     1  UNL1        0.0472
@<TRIPOS>BOND
     1    20    21    1
     2    21    19    1
     3    19    17    1
     4    17    18    2
     5    17    16    1
     6    16    11    1
     7    11    12   ar
     8    12    13   ar
     9    13    14   ar
    10    14     7    1
    11     7     8   am
    12     8     9    2
    13     8     1    1
    14     1     2   ar
    15     2     3   ar
    16     3    25    1
    17    25    26    1
    18    26    27   ar
    19    27    28   ar
    20    28    29   ar
    21    29    32    1
    22    32    33    1
    23    32    34    2
    24    32    35    2
    25    29    30   ar
    26    30    31   ar
    27     3     4   ar
    28     4     5   ar
    29     5    36    1
    30    36    37    1
    31    37    38    1
    32    37    39    1
    33     5     6   ar
    34    14    15   ar
    35    17    22    1
    36    22    23    1
    37    23    24    1
    38    15    11   ar
    39     6     1   ar
    40    31    26   ar
    41     7    10    1
@<TRIPOS>MOLECULE
*****
 39 41 0 0 0
SMALL
GASTEIGER

@<TRIPOS>ATOM
      1 C         141.2209  145.3715  158.3958 C.ar    1  UNL1        0.0597
      2 C         140.0544  146.1491  157.8623 C.ar    1  UNL1        0.0422
      3 C         139.9435  146.4200  156.3911 C.ar    1  UNL1        0.1485
      4 C         140.9991  145.9134  155.4535 C.ar    1  UNL1        0.0743
      5 C         142.1656  145.1359  155.9870 C.ar    1  UNL1        0.1416
      6 C         142.2765  144.8649  157.4582 C.ar    1  UNL1        0.0416
      7 N         142.4261  144.2156  160.3861 N.am    1  UNL1       -0.2644
      8 C         141.3318  145.1005  159.8670 C.2     1  UNL1        0.2508
      9 O         140.3486  145.7145  160.8189 O.2     1  UNL1       -0.2698
     10 H         143.0714  143.8127  159.7613 H       1  UNL1        0.1566
     11 N         142.3235  142.8897  164.0327 N.ar    1  UNL1       -0.2357
     12 C         143.0920  144.1657  164.2097 C.ar    1  UNL1        0.0988
     13 C         143.2240  144.8177  162.8652 C.ar    1  UNL1        0.0565
     14 C         142.5370  143.9446  161.8573 C.ar    1  UNL1        0.1557
     15 N         141.9805  142.7531  162.5788 N.ar    1  UNL1       -0.1534
     16 C         141.9616  141.9206  165.1187 C.3     1  UNL1        0.2423
     17 P         141.2083  142.3942  166.3263 P.3     1  UNL1        0.3677
     18 O         140.4552  142.8678  167.5339 O.2     1  UNL1       -0.2557
     19 O         139.9967  142.6360  165.4758 O.3     1  UNL1       -0.2928
     20 C         139.2034  144.7677  164.2203 C.3     1  UNL1        0.0352
     21 C         139.3264  143.9779  165.4895 C.3     1  UNL1        0.1515
     22 O         142.4201  142.1524  167.1769 O.3     1  UNL1       -0.2928
     23 C         142.3857  142.4770  168.6409 C.3     1  UNL1        0.1515
     24 C         143.5029  142.0277  169.5352 C.3     1  UNL1        0.0352
     25 O         138.7770  147.1976  155.8576 O.3     1  UNL1       -0.4534
     26 C         138.9698  148.6069  155.3813 C.ar    1  UNL1        0.1454
     27 C         139.7000  148.8716  154.0980 C.ar    1  UNL1        0.0388
     28 C         139.8928  150.2808  153.6217 C.ar    1  UNL1        0.0215
     29 C         139.3555  151.4254  154.4288 C.ar    1  UNL1        0.1059
     30 C         138.6253  151.1607  155.7121 C.ar    1  UNL1        0.0215
     31 C         138.4325  149.7514  156.1883 C.ar    1  UNL1        0.0388
     32 S         139.5483  152.8347  153.9526 S.O2    1  UNL1        0.0105
     33 C         139.7411  154.2439  153.4764 C.3     1  UNL1        0.1816
     34 O         138.1020  152.9000  153.5603 O.2     1  UNL1       -0.1686
     35 O         140.9946  152.7693  154.3449 O.2     1  UNL1       -0.1686
     36 O         143.2211  144.6293  155.0494 O.3     1  UNL1       -0.4791
     37 C         143.0128  143.3400  154.3117 C.3     1  UNL1        0.1661
     38 C         143.4975  143.1973  152.8993 C.3     1  UNL1        0.0472
     39 C         142.3199  142.1933  154.9863 C.3     1  UNL1        0.0472
@<TRIPOS>BOND
     1    20    21    1
     2    21    19    1
     3    19    17    1
     4    17    18    2
     5    17    16    1
     6    16    11    1
     7    11    12   ar
     8    12    13   ar
     9    13    14   ar
    10    14     7    1
    11     7     8   am
    12     8     9    2
    13     8     1    1
    14     1     2   ar
    15     2     3   ar
    16     3    25    1
    17    25    26    1
    18    26    27   ar
    19    27    28   ar
    20    28    29   ar
    21    29    32    1
    22    32    33    1
    23    32    34    2
    24    32    35    2
    25    29    30   ar
    26    30    31   ar
    27     3     4   ar
    28     4     5   ar
    29     5    36    1
    30    36    37    1
    31    37    38    1
    32    37    39    1
    33     5     6   ar
    34    14    15   ar
    35    17    22    1
    36    22    23    1
    37    23    24    1
    38    15    11   ar
    39     6     1   ar
    40    31    26   ar
    41     7    10    1
@<TRIPOS>MOLECULE
*****
 39 41 0 0 0
SMALL
GASTEIGER

@<TRIPOS>ATOM
      1 C         141.3586  140.3755  160.6338 C.ar    1  UNL1        0.0597
      2 C         142.4769  140.4046  161.6331 C.ar    1  UNL1        0.0422
      3 C         142.3463  141.2268  162.8809 C.ar    1  UNL1        0.1485
      4 C         141.0975  142.0198  163.1293 C.ar    1  UNL1        0.0743
      5 C         139.9793  141.9906  162.1300 C.ar    1  UNL1        0.1416
      6 C         140.1098  141.1685  160.8823 C.ar    1  UNL1        0.0416
      7 N         142.7288  139.6542  158.5475 N.am    1  UNL1       -0.2644
      8 C         141.4891  139.5533  159.3859 C.2     1  UNL1        0.2508
      9 O         140.3799  138.6302  158.9766 O.2     1  UNL1       -0.2698
     10 H         143.4568  140.2601  158.8162 H       1  UNL1        0.1566
     11 N         143.2196  136.9628  155.7942 N.ar    1  UNL1       -0.2357
     12 C         142.9005  138.1711  154.9647 C.ar    1  UNL1        0.0988
     13 C         142.6778  139.3265  155.8952 C.ar    1  UNL1        0.0565
     14 C         142.8593  138.8320  157.2997 C.ar    1  UNL1        0.1557
     15 N         143.1941  137.3712  157.2373 N.ar    1  UNL1       -0.1534
     16 C         143.5127  135.5875  155.2723 C.3     1  UNL1        0.2423
     17 P         142.8264  134.3958  155.8714 P.3     1  UNL1        0.3677
     18 O         142.1403  133.2041  156.4706 O.2     1  UNL1       -0.2557
     19 O         141.5031  134.9197  155.3979 O.3     1  UNL1       -0.2928
     20 C         141.4208  133.5989  153.1621 C.3     1  UNL1        0.0352
     21 C         141.1462  134.8500  153.9426 C.3     1  UNL1        0.1515
     22 O         144.1499  133.8719  156.3450 O.3     1  UNL1       -0.2928
     23 C         144.2881  133.3327  157.7379 C.3     1  UNL1        0.1515
     24 C         145.3766  132.3515  158.0577 C.3     1  UNL1        0.0352
     25 O         143.4646  141.2560  163.8803 O.3     1  UNL1       -0.4534
     26 C         143.1615  141.1794  165.3473 C.ar    1  UNL1        0.1454
     27 C         143.3597  142.3847  166.2180 C.ar    1  UNL1        0.0388
     28 C         143.0566  142.3082  167.6851 C.ar    1  UNL1        0.0215
     29 C         142.5554  141.0263  168.2815 C.ar    1  UNL1        0.1059
     30 C         142.3572  139.8211  167.4108 C.ar    1  UNL1        0.0215
     31 C         142.6603  139.8976  165.9437 C.ar    1  UNL1        0.0388
     32 S         142.2523  140.9498  169.7485 S.O2    1  UNL1        0.0105
     33 C         141.9492  140.8732  171.2156 C.3     1  UNL1        0.1816
     34 O         141.3998  142.1789  169.6365 O.2     1  UNL1       -0.1686
     35 O         143.1048  139.7207  169.8605 O.2     1  UNL1       -0.1686
     36 O         138.7305  142.7836  162.3785 O.3     1  UNL1       -0.4791
     37 C         138.8068  144.0964  163.1001 C.3     1  UNL1        0.1661
     38 C         138.3186  144.2044  164.5143 C.3     1  UNL1        0.0472
     39 C         139.3715  145.3012  162.4075 C.3     1  UNL1        0.0472
@<TRIPOS>BOND
     1    20    21    1
     2    21    19    1
     3    19    17    1
     4    17    18    2
     5    17    16    1
     6    16    11    1
     7    11    12   ar
     8    12    13   ar
     9    13    14   ar
    10    14     7    1
    11     7     8   am
    12     8     9    2
    13     8     1    1
    14     1     2   ar
    15     2     3   ar
    16     3    25    1
    17    25    26    1
    18    26    27   ar
    19    27    28   ar
    20    28    29   ar
    21    29    32    1
    22    32    33    1
    23    32    34    2
    24    32    35    2
    25    29    30   ar
    26    30    31   ar
    27     3     4   ar
    28     4     5   ar
    29     5    36    1
    30    36    37    1
    31    37    38    1
    32    37    39    1
    33     5     6   ar
    34    14    15   ar
    35    17    22    1
    36    22    23    1
    37    23    24    1
    38    15    11   ar
    39     6     1   ar
    40    31    26   ar
    41     7    10    1
@<TRIPOS>MOLECULE
*****
 39 41 0 0 0
SMALL
GASTEIGER

@<TRIPOS>ATOM
      1 C         141.2047  145.3849  158.3756 C.ar    1  UNL1        0.0597
      2 C         140.0477  146.1798  157.8470 C.ar    1  UNL1        0.0422
      3 C         139.9400  146.4611  156.3776 C.ar    1  UNL1        0.1485
      4 C         140.9894  145.9476  155.4368 C.ar    1  UNL1        0.0743
      5 C         142.1464  145.1527  155.9654 C.ar    1  UNL1        0.1416
      6 C         142.2540  144.8714  157.4348 C.ar    1  UNL1        0.0416
      7 N         142.4574  144.2897  160.3710 N.am    1  UNL1       -0.2644
      8 C         141.3124  145.1035  159.8451 C.2     1  UNL1        0.2508
      9 O         140.2750  145.6360  160.7887 O.2     1  UNL1       -0.2698
     10 H         143.1383  143.9402  159.7517 H       1  UNL1        0.1566
     11 N         142.2476  143.0066  164.0282 N.ar    1  UNL1       -0.2357
     12 C         143.2142  144.1442  164.1752 C.ar    1  UNL1        0.0988
     13 C         143.4105  144.7634  162.8230 C.ar    1  UNL1        0.0565
     14 C         142.5651  144.0083  161.8405 C.ar    1  UNL1        0.1557
     15 N         141.8464  142.9227  162.5853 N.ar    1  UNL1       -0.1534
     16 C         141.7666  142.1104  165.1306 C.3     1  UNL1        0.2423
     17 P         141.9618  140.6266  165.0300 P.3     1  UNL1        0.3677
     18 O         142.1572  139.1427  164.9295 O.2     1  UNL1       -0.2557
     19 O         140.4956  140.4514  164.7667 O.3     1  UNL1       -0.2928
     20 C         138.3528  139.5168  165.9003 C.3     1  UNL1        0.0352
     21 C         139.5229  140.4554  165.9086 C.3     1  UNL1        0.1515
     22 O         143.4282  140.8018  165.2933 O.3     1  UNL1       -0.2928
     23 C         144.4333  140.3179  164.2905 C.3     1  UNL1        0.1515
     24 C         145.5951  141.1883  163.9131 C.3     1  UNL1        0.0352
     25 O         138.7830  147.2560  155.8490 O.3     1  UNL1       -0.4534
     26 C         138.9906  148.6695  155.3918 C.ar    1  UNL1        0.1454
     27 C         139.7363  148.9444  154.1196 C.ar    1  UNL1        0.0388
     28 C         139.9439  150.3579  153.6625 C.ar    1  UNL1        0.0215
     29 C         139.4059  151.4964  154.4776 C.ar    1  UNL1        0.1059
     30 C         138.6602  151.2215  155.7497 C.ar    1  UNL1        0.0215
     31 C         138.4526  149.8080  156.2068 C.ar    1  UNL1        0.0388
     32 S         139.6135  152.9099  154.0204 S.O2    1  UNL1        0.0105
     33 C         139.8212  154.3234  153.5633 C.3     1  UNL1        0.1816
     34 O         140.2071  152.4078  152.7376 O.2     1  UNL1       -0.1686
     35 O         139.0199  153.4120  155.3032 O.2     1  UNL1       -0.1686
     36 O         143.1957  144.6391  155.0246 O.3     1  UNL1       -0.4791
     37 C         142.9386  144.6303  153.5469 C.3     1  UNL1        0.1661
     38 C         143.4739  145.7358  152.6858 C.3     1  UNL1        0.0472
     39 C         142.1461  143.5160  152.9301 C.3     1  UNL1        0.0472
@<TRIPOS>BOND
     1    20    21    1
     2    21    19    1
     3    19    17    1
     4    17    18    2
     5    17    16    1
     6    16    11    1
     7    11    12   ar
     8    12    13   ar
     9    13    14   ar
    10    14     7    1
    11     7     8   am
    12     8     9    2
    13     8     1    1
    14     1     2   ar
    15     2     3   ar
    16     3    25    1
    17    25    26    1
    18    26    27   ar
    19    27    28   ar
    20    28    29   ar
    21    29    32    1
    22    32    33    1
    23    32    34    2
    24    32    35    2
    25    29    30   ar
    26    30    31   ar
    27     3     4   ar
    28     4     5   ar
    29     5    36    1
    30    36    37    1
    31    37    38    1
    32    37    39    1
    33     5     6   ar
    34    14    15   ar
    35    17    22    1
    36    22    23    1
    37    23    24    1
    38    15    11   ar
    39     6     1   ar
    40    31    26   ar
    41     7    10    1
@<TRIPOS>MOLECULE
*****
 39 41 0 0 0
SMALL
GASTEIGER

@<TRIPOS>ATOM
      1 C         137.6194  141.8102  157.4249 C.ar    1  UNL1        0.0597
      2 C         136.5644  141.0307  156.6974 C.ar    1  UNL1        0.0422
      3 C         135.9119  141.6095  155.4771 C.ar    1  UNL1        0.1485
      4 C         136.3145  142.9677  154.9842 C.ar    1  UNL1        0.0743
      5 C         137.3696  143.7472  155.7116 C.ar    1  UNL1        0.1416
      6 C         138.0220  143.1685  156.9319 C.ar    1  UNL1        0.0416
      7 N         137.9774  139.8188  159.0547 N.am    1  UNL1       -0.2644
      8 C         138.2719  141.2314  158.6453 C.2     1  UNL1        0.2508
      9 O         139.2189  142.0654  159.4563 O.2     1  UNL1       -0.2698
     10 H         137.3558  139.2714  158.5224 H       1  UNL1        0.1566
     11 N         139.0495  138.5678  162.5691 N.ar    1  UNL1       -0.2357
     12 C         140.2185  138.1310  161.7369 C.ar    1  UNL1        0.0988
     13 C         139.9592  138.5464  160.3190 C.ar    1  UNL1        0.0565
     14 C         138.6299  139.2400  160.2751 C.ar    1  UNL1        0.1557
     15 N         138.0677  139.2532  161.6656 N.ar    1  UNL1       -0.1534
     16 C         138.8902  138.3563  164.0455 C.3     1  UNL1        0.2423
     17 P         139.5292  139.3082  165.0128 P.3     1  UNL1        0.3677
     18 O         140.1683  140.2599  165.9801 O.2     1  UNL1       -0.2557
     19 O         138.4281  140.2968  164.7676 O.3     1  UNL1       -0.2928
     20 C         137.7241  142.7788  164.4613 C.3     1  UNL1        0.0352
     21 C         138.7583  141.6983  164.3473 C.3     1  UNL1        0.1515
     22 O         140.6304  138.3195  165.2580 O.3     1  UNL1       -0.2928
     23 C         142.0535  138.6946  164.9676 C.3     1  UNL1        0.1515
     24 C         143.1418  138.3050  165.9235 C.3     1  UNL1        0.0352
     25 O         134.8568  140.8300  154.7496 O.3     1  UNL1       -0.4534
     26 C         133.5950  140.4341  155.4575 C.ar    1  UNL1        0.1454
     27 C         133.5396  139.1491  156.2295 C.ar    1  UNL1        0.0388
     28 C         132.2778  138.7532  156.9373 C.ar    1  UNL1        0.0215
     29 C         131.0713  139.6423  156.8732 C.ar    1  UNL1        0.1059
     30 C         131.1267  140.9272  156.1013 C.ar    1  UNL1        0.0215
     31 C         132.3885  141.3231  155.3934 C.ar    1  UNL1        0.0388
     32 S         129.8095  139.2464  157.5811 S.O2    1  UNL1        0.0105
     33 C         128.5477  138.8505  158.2890 C.3     1  UNL1        0.1816
     34 O         129.0253  140.1759  156.7031 O.2     1  UNL1       -0.1686
     35 O         130.5938  138.3169  158.4592 O.2     1  UNL1       -0.1686
     36 O         137.7722  145.1055  155.2186 O.3     1  UNL1       -0.4791
     37 C         139.1915  145.5674  155.3683 C.3     1  UNL1        0.1661
     38 C         139.5281  146.6509  156.3495 C.3     1  UNL1        0.0472
     39 C         140.2742  144.9458  154.5367 C.3     1  UNL1        0.0472
@<TRIPOS>BOND
     1    20    21    1
     2    21    19    1
     3    19    17    1
     4    17    18    2
     5    17    16    1
     6    16    11    1
     7    11    12   ar
     8    12    13   ar
     9    13    14   ar
    10    14     7    1
    11     7     8   am
    12     8     9    2
    13     8     1    1
    14     1     2   ar
    15     2     3   ar
    16     3    25    1
    17    25    26    1
    18    26    27   ar
    19    27    28   ar
    20    28    29   ar
    21    29    32    1
    22    32    33    1
    23    32    34    2
    24    32    35    2
    25    29    30   ar
    26    30    31   ar
    27     3     4   ar
    28     4     5   ar
    29     5    36    1
    30    36    37    1
    31    37    38    1
    32    37    39    1
    33     5     6   ar
    34    14    15   ar
    35    17    22    1
    36    22    23    1
    37    23    24    1
    38    15    11   ar
    39     6     1   ar
    40    31    26   ar
    41     7    10    1
