@<TRIPOS>MOLECULE
*****
 31 33 0 0 0
SMALL
GASTEIGER

@<TRIPOS>ATOM
      1 N         142.7894  141.3205  165.4054 N.ar    1  UNL1       -0.2876
      2 C         143.2617  140.0673  164.7299 C.ar    1  UNL1        0.1187
      3 C         143.3056  138.9753  165.7573 C.ar    1  UNL1        0.0236
      4 C         142.8603  139.5536  167.0678 C.ar    1  UNL1        0.0180
      5 C         142.7042  138.9476  168.4310 C.ar    1  UNL1        0.0046
      6 C         142.2290  139.7911  169.5767 C.ar    1  UNL1        0.0373
      7 C         141.9100  141.2405  169.3592 C.ar    1  UNL1        0.1483
      8 C         142.0661  141.8465  167.9960 C.ar    1  UNL1        0.0547
      9 C         142.5413  141.0030  166.8503 C.ar    1  UNL1        0.0685
     10 C         141.0636  144.3761  163.5520 C.ar    1  UNL1        0.0606
     11 C         142.2169  145.3289  163.4420 C.ar    1  UNL1        0.0148
     12 C         143.5609  144.9456  163.9865 C.ar    1  UNL1        0.0043
     13 C         143.7517  143.6094  164.6410 C.ar    1  UNL1        0.0374
     14 C         142.5986  142.6566  164.7510 C.ar    1  UNL1        0.1474
     15 N         141.2544  143.0400  164.2064 N.ar    1  UNL1       -0.2323
     16 C         139.5960  145.9163  162.0608 C.3     1  UNL1        0.0067
     17 C         139.7195  144.7594  163.0075 C.3     1  UNL1        0.0459
     18 C         138.4990  143.9858  163.4097 C.3     1  UNL1        0.0476
     19 C         137.8692  143.0242  162.4460 C.2     1  UNL1        0.0507
     20 O         138.0962  143.1829  160.9717 O.co2   1  UNL1       -0.5492
     21 O         137.0125  141.9037  162.9565 O.co2   1  UNL1       -0.5492
     22 C         143.6262  139.9301  163.2813 C.2     1  UNL1        0.2590
     23 N         144.9792  140.3673  162.8038 N.am    1  UNL1       -0.3241
     24 O         142.6377  139.3558  162.3103 O.2     1  UNL1       -0.2688
     25 H         145.6281  140.7443  163.4411 H       1  UNL1        0.1453
     26 H         145.2185  140.2773  161.8530 H       1  UNL1        0.1453
     27 O         141.4347  142.0840  170.5050 O.3     1  UNL1       -0.4044
     28 C         140.8205  143.4272  170.2434 C.3     1  UNL1        0.5753
     29 F         140.2063  144.7705  169.9817 F       1  UNL1       -0.1328
     30 F         142.1715  144.0680  170.3615 F       1  UNL1       -0.1328
     31 F         139.4695  142.7863  170.1252 F       1  UNL1       -0.1328
@<TRIPOS>UNITY_ATOM_ATTR
20 1
charge -1
@<TRIPOS>BOND
     1    16    17    1
     2    17    18    1
     3    18    19    1
     4    19    20   ar
     5    19    21   ar
     6    17    10    1
     7    10    11   ar
     8    11    12   ar
     9    12    13   ar
    10    13    14   ar
    11    14     1    1
    12     1     2   ar
    13     2    22    1
    14    22    23   am
    15    22    24    2
    16     2     3   ar
    17     3     4   ar
    18     4     5   ar
    19     5     6   ar
    20     6     7   ar
    21     7    27    1
    22    27    28    1
    23    28    29    1
    24    28    30    1
    25    28    31    1
    26     7     8   ar
    27     8     9   ar
    28    14    15   ar
    29    15    10   ar
    30     9     1   ar
    31     9     4   ar
    32    23    25    1
    33    23    26    1
@<TRIPOS>MOLECULE
*****
 31 33 0 0 0
SMALL
GASTEIGER

@<TRIPOS>ATOM
      1 N         139.9116  140.6504  165.0379 N.ar    1  UNL1       -0.2876
      2 C         138.6632  139.8412  164.8462 C.ar    1  UNL1        0.1187
      3 C         137.9092  140.4202  163.6859 C.ar    1  UNL1        0.0236
      4 C         138.6916  141.5872  163.1605 C.ar    1  UNL1        0.0180
      5 C         138.4371  142.5387  162.0292 C.ar    1  UNL1        0.0046
      6 C         139.4200  143.6324  161.7335 C.ar    1  UNL1        0.0373
      7 C         140.6576  143.7746  162.5691 C.ar    1  UNL1        0.1483
      8 C         140.9122  142.8232  163.7004 C.ar    1  UNL1        0.0547
      9 C         139.9292  141.7295  163.9961 C.ar    1  UNL1        0.0685
     10 C         142.2089  141.2012  168.2269 C.ar    1  UNL1        0.0606
     11 C         143.0527  139.9617  168.1858 C.ar    1  UNL1        0.0148
     12 C         142.8495  138.9518  167.0955 C.ar    1  UNL1        0.0043
     13 C         141.8025  139.1814  166.0462 C.ar    1  UNL1        0.0374
     14 C         140.9586  140.4208  166.0872 C.ar    1  UNL1        0.1474
     15 N         141.1618  141.4307  167.1776 N.ar    1  UNL1       -0.2323
     16 C         143.7935  142.4966  169.8270 C.3     1  UNL1        0.0067
     17 C         142.4120  142.2111  169.3172 C.3     1  UNL1        0.0459
     18 C         141.2337  142.9354  169.8977 C.3     1  UNL1        0.0476
     19 C         140.2814  142.2131  170.8039 C.2     1  UNL1        0.0507
     20 O         140.4924  142.2402  172.2888 O.co2   1  UNL1       -0.5492
     21 O         139.1180  141.4636  170.2253 O.co2   1  UNL1       -0.5492
     22 C         138.2426  138.6604  165.6701 C.2     1  UNL1        0.2590
     23 N         138.7132  137.2842  165.3033 N.am    1  UNL1       -0.3241
     24 O         137.3515  138.8558  166.8607 O.2     1  UNL1       -0.2688
     25 H         139.2981  137.1559  164.5219 H       1  UNL1        0.1453
     26 H         138.4372  136.5092  165.8441 H       1  UNL1        0.1453
     27 O         141.6406  144.8684  162.2734 O.3     1  UNL1       -0.4044
     28 C         142.7906  145.1152  163.2043 C.3     1  UNL1        0.5753
     29 F         143.9406  145.3620  164.1353 F       1  UNL1       -0.1328
     30 F         141.8769  145.8531  164.1374 F       1  UNL1       -0.1328
     31 F         143.7042  144.3773  162.2713 F       1  UNL1       -0.1328
@<TRIPOS>UNITY_ATOM_ATTR
20 1
charge -1
@<TRIPOS>BOND
     1    16    17    1
     2    17    18    1
     3    18    19    1
     4    19    20   ar
     5    19    21   ar
     6    17    10    1
     7    10    11   ar
     8    11    12   ar
     9    12    13   ar
    10    13    14   ar
    11    14     1    1
    12     1     2   ar
    13     2    22    1
    14    22    23   am
    15    22    24    2
    16     2     3   ar
    17     3     4   ar
    18     4     5   ar
    19     5     6   ar
    20     6     7   ar
    21     7    27    1
    22    27    28    1
    23    28    29    1
    24    28    30    1
    25    28    31    1
    26     7     8   ar
    27     8     9   ar
    28    14    15   ar
    29    15    10   ar
    30     9     1   ar
    31     9     4   ar
    32    23    25    1
    33    23    26    1
@<TRIPOS>MOLECULE
*****
 31 33 0 0 0
SMALL
GASTEIGER

@<TRIPOS>ATOM
      1 N         140.9334  141.7605  167.2452 N.ar    1  UNL1       -0.2876
      2 C         140.7644  142.0264  168.7117 C.ar    1  UNL1        0.1187
      3 C         139.7304  141.0762  169.2389 C.ar    1  UNL1        0.0236
      4 C         139.2603  140.2231  168.0982 C.ar    1  UNL1        0.0180
      5 C         138.2513  139.1158  168.0224 C.ar    1  UNL1        0.0046
      6 C         137.9858  138.4314  166.7143 C.ar    1  UNL1        0.0373
      7 C         138.7293  138.8543  165.4821 C.ar    1  UNL1        0.1483
      8 C         139.7383  139.9616  165.5579 C.ar    1  UNL1        0.0547
      9 C         140.0038  140.6460  166.8660 C.ar    1  UNL1        0.0685
     10 C         142.2627  143.9202  164.1925 C.ar    1  UNL1        0.0606
     11 C         143.7368  143.9261  164.4700 C.ar    1  UNL1        0.0148
     12 C         144.2764  143.2101  165.6726 C.ar    1  UNL1        0.0043
     13 C         143.3419  142.4883  166.5976 C.ar    1  UNL1        0.0374
     14 C         141.8679  142.4823  166.3202 C.ar    1  UNL1        0.1474
     15 N         141.3282  143.1984  165.1175 N.ar    1  UNL1       -0.2323
     16 C         142.3013  144.3640  161.6329 C.3     1  UNL1        0.0067
     17 C         141.7230  144.6362  162.9900 C.3     1  UNL1        0.0459
     18 C         140.6051  145.6243  163.1444 C.3     1  UNL1        0.0476
     19 C         139.4261  145.5736  162.2184 C.2     1  UNL1        0.0507
     20 O         138.2361  144.7284  162.5647 O.co2   1  UNL1       -0.5492
     21 O         139.4370  146.3680  160.9461 O.co2   1  UNL1       -0.5492
     22 C         141.5003  143.0608  169.5107 C.2     1  UNL1        0.2590
     23 N         142.9637  142.8899  169.7923 N.am    1  UNL1       -0.3241
     24 O         140.7728  144.2662  170.0282 O.2     1  UNL1       -0.2688
     25 H         143.4412  142.0988  169.4526 H       1  UNL1        0.1453
     26 H         143.4466  143.5689  170.3167 H       1  UNL1        0.1453
     27 O         138.4637  138.1699  164.1740 O.3     1  UNL1       -0.4044
     28 C         139.6093  137.7047  163.3248 C.3     1  UNL1        0.5753
     29 F         140.7549  137.2394  162.4755 F       1  UNL1       -0.1328
     30 F         139.0407  138.4462  162.1515 F       1  UNL1       -0.1328
     31 F         140.1778  136.9631  164.4981 F       1  UNL1       -0.1328
@<TRIPOS>UNITY_ATOM_ATTR
20 1
charge -1
@<TRIPOS>BOND
     1    16    17    1
     2    17    18    1
     3    18    19    1
     4    19    20   ar
     5    19    21   ar
     6    17    10    1
     7    10    11   ar
     8    11    12   ar
     9    12    13   ar
    10    13    14   ar
    11    14     1    1
    12     1     2   ar
    13     2    22    1
    14    22    23   am
    15    22    24    2
    16     2     3   ar
    17     3     4   ar
    18     4     5   ar
    19     5     6   ar
    20     6     7   ar
    21     7    27    1
    22    27    28    1
    23    28    29    1
    24    28    30    1
    25    28    31    1
    26     7     8   ar
    27     8     9   ar
    28    14    15   ar
    29    15    10   ar
    30     9     1   ar
    31     9     4   ar
    32    23    25    1
    33    23    26    1
@<TRIPOS>MOLECULE
*****
 31 33 0 0 0
SMALL
GASTEIGER

@<TRIPOS>ATOM
      1 N         140.3194  142.8474  164.5994 N.ar    1  UNL1       -0.2876
      2 C         139.6482  144.1777  164.4272 C.ar    1  UNL1        0.1187
      3 C         140.4929  145.0071  163.5060 C.ar    1  UNL1        0.0236
      4 C         141.6861  144.1894  163.1089 C.ar    1  UNL1        0.0180
      5 C         142.8563  144.4878  162.2193 C.ar    1  UNL1        0.0046
      6 C         143.9193  143.4514  162.0055 C.ar    1  UNL1        0.0373
      7 C         143.8121  142.1165  162.6813 C.ar    1  UNL1        0.1483
      8 C         142.6418  141.8181  163.5709 C.ar    1  UNL1        0.0547
      9 C         141.5788  142.8546  163.7847 C.ar    1  UNL1        0.0685
     10 C         139.7202  140.4701  167.7204 C.ar    1  UNL1        0.0606
     11 C         138.8182  139.4338  167.1183 C.ar    1  UNL1        0.0148
     12 C         138.4166  139.5354  165.6767 C.ar    1  UNL1        0.0043
     13 C         138.9170  140.6733  164.8371 C.ar    1  UNL1        0.0374
     14 C         139.8190  141.7095  165.4390 C.ar    1  UNL1        0.1474
     15 N         140.2206  141.6080  166.8808 N.ar    1  UNL1       -0.2323
     16 C         141.2956  139.5216  169.5556 C.3     1  UNL1        0.0067
     17 C         140.1219  140.3686  169.1620 C.3     1  UNL1        0.0459
     18 C         139.3499  141.1141  170.2100 C.3     1  UNL1        0.0476
     19 C         139.9307  142.3488  170.8330 C.2     1  UNL1        0.0507
     20 O         139.8779  143.6556  170.0984 O.co2   1  UNL1       -0.5492
     21 O         140.5643  142.2767  172.1907 O.co2   1  UNL1       -0.5492
     22 C         138.3588  144.6038  165.0643 C.2     1  UNL1        0.2590
     23 N         137.0528  144.1059  164.5199 N.am    1  UNL1       -0.3241
     24 O         138.3754  145.5279  166.2457 O.2     1  UNL1       -0.2688
     25 H         137.0419  143.4994  163.7445 H       1  UNL1        0.1453
     26 H         136.2065  144.3856  164.9381 H       1  UNL1        0.1453
     27 O         144.8752  141.0801  162.4675 O.3     1  UNL1       -0.4044
     28 C         144.5081  139.6263  162.4281 C.3     1  UNL1        0.5753
     29 F         144.1410  138.1723  162.3887 F       1  UNL1       -0.1328
     30 F         145.0669  139.4478  163.8086 F       1  UNL1       -0.1328
     31 F         143.9494  139.8048  161.0475 F       1  UNL1       -0.1328
@<TRIPOS>UNITY_ATOM_ATTR
20 1
charge -1
@<TRIPOS>BOND
     1    16    17    1
     2    17    18    1
     3    18    19    1
     4    19    20   ar
     5    19    21   ar
     6    17    10    1
     7    10    11   ar
     8    11    12   ar
     9    12    13   ar
    10    13    14   ar
    11    14     1    1
    12     1     2   ar
    13     2    22    1
    14    22    23   am
    15    22    24    2
    16     2     3   ar
    17     3     4   ar
    18     4     5   ar
    19     5     6   ar
    20     6     7   ar
    21     7    27    1
    22    27    28    1
    23    28    29    1
    24    28    30    1
    25    28    31    1
    26     7     8   ar
    27     8     9   ar
    28    14    15   ar
    29    15    10   ar
    30     9     1   ar
    31     9     4   ar
    32    23    25    1
    33    23    26    1
@<TRIPOS>MOLECULE
*****
 31 33 0 0 0
SMALL
GASTEIGER

@<TRIPOS>ATOM
      1 N         140.5403  139.3909  164.9050 N.ar    1  UNL1       -0.2876
      2 C         139.0984  139.1723  164.5541 C.ar    1  UNL1        0.1187
      3 C         138.2878  139.3283  165.8065 C.ar    1  UNL1        0.0236
      4 C         139.2287  139.6431  166.9315 C.ar    1  UNL1        0.0180
      5 C         138.9977  139.8996  168.3912 C.ar    1  UNL1        0.0046
      6 C         140.1588  140.1948  169.2938 C.ar    1  UNL1        0.0373
      7 C         141.5510  140.2335  168.7366 C.ar    1  UNL1        0.1483
      8 C         141.7820  139.9770  167.2769 C.ar    1  UNL1        0.0547
      9 C         140.6209  139.6818  166.3744 C.ar    1  UNL1        0.0685
     10 C         143.7870  140.4375  162.8767 C.ar    1  UNL1        0.0606
     11 C         144.0147  139.2061  162.0510 C.ar    1  UNL1        0.0148
     12 C         143.0842  138.0363  162.1767 C.ar    1  UNL1        0.0043
     13 C         141.9262  138.0979  163.1281 C.ar    1  UNL1        0.0374
     14 C         141.6984  139.3292  163.9537 C.ar    1  UNL1        0.1474
     15 N         142.6289  140.4991  163.8280 N.ar    1  UNL1       -0.2323
     16 C         145.9299  141.6989  163.6293 C.3     1  UNL1        0.0067
     17 C         144.7173  141.6074  162.7511 C.3     1  UNL1        0.0459
     18 C         144.4352  142.6857  161.7472 C.3     1  UNL1        0.0476
     19 C         143.5436  143.8354  162.1121 C.2     1  UNL1        0.0507
     20 O         144.1375  145.1048  162.6468 O.co2   1  UNL1       -0.5492
     21 O         142.0581  143.7157  161.9423 O.co2   1  UNL1       -0.5492
     22 C         138.5614  138.8538  163.1902 C.2     1  UNL1        0.2590
     23 N         138.5155  137.4317  162.7155 N.am    1  UNL1       -0.3241
     24 O         138.0703  139.9575  162.3010 O.2     1  UNL1       -0.2688
     25 H         138.8379  136.7073  163.2992 H       1  UNL1        0.1453
     26 H         138.1631  137.2227  161.8204 H       1  UNL1        0.1453
     27 O         142.7121  140.5287  169.6392 O.3     1  UNL1       -0.4044
     28 C         142.9653  141.9333  170.1006 C.3     1  UNL1        0.5753
     29 F         143.2185  143.3380  170.5620 F       1  UNL1       -0.1328
     30 F         143.7536  142.2010  168.8530 F       1  UNL1       -0.1328
     31 F         142.1769  141.6655  171.3483 F       1  UNL1       -0.1328
@<TRIPOS>UNITY_ATOM_ATTR
20 1
charge -1
@<TRIPOS>BOND
     1    16    17    1
     2    17    18    1
     3    18    19    1
     4    19    20   ar
     5    19    21   ar
     6    17    10    1
     7    10    11   ar
     8    11    12   ar
     9    12    13   ar
    10    13    14   ar
    11    14     1    1
    12     1     2   ar
    13     2    22    1
    14    22    23   am
    15    22    24    2
    16     2     3   ar
    17     3     4   ar
    18     4     5   ar
    19     5     6   ar
    20     6     7   ar
    21     7    27    1
    22    27    28    1
    23    28    29    1
    24    28    30    1
    25    28    31    1
    26     7     8   ar
    27     8     9   ar
    28    14    15   ar
    29    15    10   ar
    30     9     1   ar
    31     9     4   ar
    32    23    25    1
    33    23    26    1
@<TRIPOS>MOLECULE
*****
 31 33 0 0 0
SMALL
GASTEIGER

@<TRIPOS>ATOM
      1 N         141.2982  139.4126  164.8189 N.ar    1  UNL1       -0.2876
      2 C         140.3498  138.5686  164.0200 C.ar    1  UNL1        0.1187
      3 C         139.1214  138.3397  164.8497 C.ar    1  UNL1        0.0236
      4 C         139.3104  139.0423  166.1615 C.ar    1  UNL1        0.0180
      5 C         138.4314  139.1639  167.3707 C.ar    1  UNL1        0.0046
      6 C         138.8977  139.9486  168.5610 C.ar    1  UNL1        0.0373
      7 C         140.2430  140.6116  168.5420 C.ar    1  UNL1        0.1483
      8 C         141.1221  140.4900  167.3327 C.ar    1  UNL1        0.0547
      9 C         140.6558  139.7053  166.1424 C.ar    1  UNL1        0.0685
     10 C         144.1277  141.5662  163.0566 C.ar    1  UNL1        0.0606
     11 C         145.3576  140.8194  163.4803 C.ar    1  UNL1        0.0148
     12 C         145.2344  139.6036  164.3502 C.ar    1  UNL1        0.0043
     13 C         143.8812  139.1347  164.7964 C.ar    1  UNL1        0.0374
     14 C         142.6513  139.8815  164.3728 C.ar    1  UNL1        0.1474
     15 N         142.7746  141.0973  163.5028 N.ar    1  UNL1       -0.2323
     16 C         144.6762  142.6399  160.7553 C.3     1  UNL1        0.0067
     17 C         144.2509  142.7820  162.1868 C.3     1  UNL1        0.0459
     18 C         143.9488  144.1397  162.7482 C.3     1  UNL1        0.0476
     19 C         142.5411  144.6575  162.7422 C.2     1  UNL1        0.0507
     20 O         141.6147  144.2990  161.6182 O.co2   1  UNL1       -0.5492
     21 O         142.0596  145.5340  163.8603 O.co2   1  UNL1       -0.5492
     22 C         140.5882  138.0453  162.6345 C.2     1  UNL1        0.2590
     23 N         141.8615  137.3195  162.3157 N.am    1  UNL1       -0.3241
     24 O         139.5531  138.2478  161.5680 O.2     1  UNL1       -0.2688
     25 H         142.5409  137.1866  163.0157 H       1  UNL1        0.1453
     26 H         142.0179  136.9761  161.4064 H       1  UNL1        0.1453
     27 O         140.7093  141.3964  169.7324 O.3     1  UNL1       -0.4044
     28 C         140.4789  142.8773  169.7914 C.3     1  UNL1        0.5753
     29 F         140.2485  144.3584  169.8505 F       1  UNL1       -0.1328
     30 F         141.7795  143.1081  169.0808 F       1  UNL1       -0.1328
     31 F         139.1783  142.6466  170.5021 F       1  UNL1       -0.1328
@<TRIPOS>UNITY_ATOM_ATTR
20 1
charge -1
@<TRIPOS>BOND
     1    16    17    1
     2    17    18    1
     3    18    19    1
     4    19    20   ar
     5    19    21   ar
     6    17    10    1
     7    10    11   ar
     8    11    12   ar
     9    12    13   ar
    10    13    14   ar
    11    14     1    1
    12     1     2   ar
    13     2    22    1
    14    22    23   am
    15    22    24    2
    16     2     3   ar
    17     3     4   ar
    18     4     5   ar
    19     5     6   ar
    20     6     7   ar
    21     7    27    1
    22    27    28    1
    23    28    29    1
    24    28    30    1
    25    28    31    1
    26     7     8   ar
    27     8     9   ar
    28    14    15   ar
    29    15    10   ar
    30     9     1   ar
    31     9     4   ar
    32    23    25    1
    33    23    26    1
@<TRIPOS>MOLECULE
*****
 31 33 0 0 0
SMALL
GASTEIGER

@<TRIPOS>ATOM
      1 N         140.0107  140.3066  165.4625 N.ar    1  UNL1       -0.2876
      2 C         138.8414  139.4647  165.0454 C.ar    1  UNL1        0.1187
      3 C         138.0896  139.0705  166.2821 C.ar    1  UNL1        0.0236
      4 C         138.7942  139.6689  167.4635 C.ar    1  UNL1        0.0180
      5 C         138.5081  139.6168  168.9350 C.ar    1  UNL1        0.0046
      6 C         139.4092  140.3286  169.8999 C.ar    1  UNL1        0.0373
      7 C         140.5965  141.0926  169.3933 C.ar    1  UNL1        0.1483
      8 C         140.8827  141.1447  167.9218 C.ar    1  UNL1        0.0547
      9 C         139.9815  140.4329  166.9569 C.ar    1  UNL1        0.0685
     10 C         142.1822  143.0160  163.5403 C.ar    1  UNL1        0.0606
     11 C         143.0692  142.1334  162.7131 C.ar    1  UNL1        0.0148
     12 C         142.9367  140.6420  162.8023 C.ar    1  UNL1        0.0043
     13 C         141.9172  140.0331  163.7188 C.ar    1  UNL1        0.0374
     14 C         141.0302  140.9155  164.5460 C.ar    1  UNL1        0.1474
     15 N         141.1627  142.4071  164.4568 N.ar    1  UNL1       -0.2323
     16 C         143.6507  145.1556  163.6622 C.3     1  UNL1        0.0067
     17 C         142.3146  144.5074  163.4511 C.3     1  UNL1        0.0459
     18 C         141.1110  145.3507  163.1509 C.3     1  UNL1        0.0476
     19 C         140.6080  145.4654  161.7424 C.2     1  UNL1        0.0507
     20 O         139.2878  146.1228  161.4685 O.co2   1  UNL1       -0.5492
     21 O         141.4253  144.9227  160.6077 O.co2   1  UNL1       -0.5492
     22 C         138.4864  139.0838  163.6387 C.2     1  UNL1        0.2590
     23 N         138.8349  137.7201  163.1203 N.am    1  UNL1       -0.3241
     24 O         137.7827  140.0665  162.7505 O.2     1  UNL1       -0.2688
     25 H         139.2967  137.0750  163.7033 H       1  UNL1        0.1453
     26 H         138.6018  137.4701  162.1970 H       1  UNL1        0.1453
     27 O         141.4977  141.8045  170.3583 O.3     1  UNL1       -0.4044
     28 C         142.9144  142.1129  169.9737 C.3     1  UNL1        0.5753
     29 F         144.3311  142.4214  169.5890 F       1  UNL1       -0.1328
     30 F         142.5903  143.5773  169.9543 F       1  UNL1       -0.1328
     31 F         143.2384  140.6485  169.9931 F       1  UNL1       -0.1328
@<TRIPOS>UNITY_ATOM_ATTR
20 1
charge -1
@<TRIPOS>BOND
     1    16    17    1
     2    17    18    1
     3    18    19    1
     4    19    20   ar
     5    19    21   ar
     6    17    10    1
     7    10    11   ar
     8    11    12   ar
     9    12    13   ar
    10    13    14   ar
    11    14     1    1
    12     1     2   ar
    13     2    22    1
    14    22    23   am
    15    22    24    2
    16     2     3   ar
    17     3     4   ar
    18     4     5   ar
    19     5     6   ar
    20     6     7   ar
    21     7    27    1
    22    27    28    1
    23    28    29    1
    24    28    30    1
    25    28    31    1
    26     7     8   ar
    27     8     9   ar
    28    14    15   ar
    29    15    10   ar
    30     9     1   ar
    31     9     4   ar
    32    23    25    1
    33    23    26    1
@<TRIPOS>MOLECULE
*****
 31 33 0 0 0
SMALL
GASTEIGER

@<TRIPOS>ATOM
      1 N         139.4477  141.7815  165.1464 N.ar    1  UNL1       -0.2876
      2 C         138.5389  140.7454  164.5543 C.ar    1  UNL1        0.1187
      3 C         138.2447  139.7264  165.6149 C.ar    1  UNL1        0.0236
      4 C         138.9716  140.1327  166.8625 C.ar    1  UNL1        0.0180
      5 C         139.0525  139.5102  168.2248 C.ar    1  UNL1        0.0046
      6 C         139.8769  140.1578  169.2975 C.ar    1  UNL1        0.0373
      7 C         140.6205  141.4280  169.0080 C.ar    1  UNL1        0.1483
      8 C         140.5395  142.0505  167.6457 C.ar    1  UNL1        0.0547
      9 C         139.7151  141.4028  166.5730 C.ar    1  UNL1        0.0685
     10 C         142.0213  144.4026  163.6441 C.ar    1  UNL1        0.0606
     11 C         141.0846  145.3921  163.0169 C.ar    1  UNL1        0.0148
     12 C         139.6022  145.1780  163.0995 C.ar    1  UNL1        0.0043
     13 C         139.0566  143.9745  163.8093 C.ar    1  UNL1        0.0374
     14 C         139.9933  142.9850  164.4365 C.ar    1  UNL1        0.1474
     15 N         141.4757  143.1991  164.3540 N.ar    1  UNL1       -0.2323
     16 C         144.2031  145.4316  164.6087 C.3     1  UNL1        0.0067
     17 C         143.5036  144.6166  163.5616 C.3     1  UNL1        0.0459
     18 C         144.2865  144.0155  162.4321 C.3     1  UNL1        0.0476
     19 C         143.5820  143.2306  161.3655 C.2     1  UNL1        0.0507
     20 O         143.5436  141.7328  161.4382 O.co2   1  UNL1       -0.5492
     21 O         142.9158  143.9434  160.2262 O.co2   1  UNL1       -0.5492
     22 C         138.0162  140.7308  163.1484 C.2     1  UNL1        0.2590
     23 N         138.6599  139.8513  162.1179 N.am    1  UNL1       -0.3241
     24 O         136.8497  141.5959  162.7729 O.2     1  UNL1       -0.2688
     25 H         139.4256  139.2835  162.3643 H       1  UNL1        0.1453
     26 H         138.3168  139.8418  161.1952 H       1  UNL1        0.1453
     27 O         141.4449  142.0757  170.0808 O.3     1  UNL1       -0.4044
     28 C         142.9032  142.3399  169.8493 C.3     1  UNL1        0.5753
     29 F         144.3615  142.6040  169.6177 F       1  UNL1       -0.1328
     30 F         143.0705  140.9482  169.3151 F       1  UNL1       -0.1328
     31 F         142.7359  143.7315  170.3834 F       1  UNL1       -0.1328
@<TRIPOS>UNITY_ATOM_ATTR
20 1
charge -1
@<TRIPOS>BOND
     1    16    17    1
     2    17    18    1
     3    18    19    1
     4    19    20   ar
     5    19    21   ar
     6    17    10    1
     7    10    11   ar
     8    11    12   ar
     9    12    13   ar
    10    13    14   ar
    11    14     1    1
    12     1     2   ar
    13     2    22    1
    14    22    23   am
    15    22    24    2
    16     2     3   ar
    17     3     4   ar
    18     4     5   ar
    19     5     6   ar
    20     6     7   ar
    21     7    27    1
    22    27    28    1
    23    28    29    1
    24    28    30    1
    25    28    31    1
    26     7     8   ar
    27     8     9   ar
    28    14    15   ar
    29    15    10   ar
    30     9     1   ar
    31     9     4   ar
    32    23    25    1
    33    23    26    1
@<TRIPOS>MOLECULE
*****
 31 33 0 0 0
SMALL
GASTEIGER

@<TRIPOS>ATOM
      1 N         143.0612  141.1100  164.5762 N.ar    1  UNL1       -0.2876
      2 C         143.9828  142.2685  164.3346 C.ar    1  UNL1        0.1187
      3 C         144.1720  142.9895  165.6362 C.ar    1  UNL1        0.0236
      4 C         143.3673  142.2766  166.6823 C.ar    1  UNL1        0.0180
      5 C         143.1710  142.5351  168.1467 C.ar    1  UNL1        0.0046
      6 C         142.2882  141.6319  168.9560 C.ar    1  UNL1        0.0373
      7 C         141.6017  140.4703  168.3008 C.ar    1  UNL1        0.1483
      8 C         141.7980  140.2118  166.8364 C.ar    1  UNL1        0.0547
      9 C         142.6808  141.1149  166.0271 C.ar    1  UNL1        0.0685
     10 C         140.7426  139.2046  161.9792 C.ar    1  UNL1        0.0606
     11 C         141.6799  138.1406  161.4898 C.ar    1  UNL1        0.0148
     12 C         143.0775  138.0664  162.0293 C.ar    1  UNL1        0.0043
     13 C         143.5379  139.0562  163.0580 C.ar    1  UNL1        0.0374
     14 C         142.6008  140.1202  163.5474 C.ar    1  UNL1        0.1474
     15 N         141.2030  140.1944  163.0079 N.ar    1  UNL1       -0.2323
     16 C         139.1174  139.4328  159.9652 C.3     1  UNL1        0.0067
     17 C         139.3449  139.2789  161.4398 C.3     1  UNL1        0.0459
     18 C         138.1749  139.1992  162.3750 C.3     1  UNL1        0.0476
     19 C         137.7731  140.4010  163.1776 C.2     1  UNL1        0.0507
     20 O         137.0964  141.5593  162.5064 O.co2   1  UNL1       -0.5492
     21 O         138.0481  140.4446  164.6516 O.co2   1  UNL1       -0.5492
     22 C         144.6058  142.6407  163.0218 C.2     1  UNL1        0.2590
     23 N         144.1797  143.8951  162.3183 N.am    1  UNL1       -0.3241
     24 O         145.6550  141.7586  162.4126 O.2     1  UNL1       -0.2688
     25 H         143.4911  144.4741  162.7181 H       1  UNL1        0.1453
     26 H         144.5887  144.1394  161.4567 H       1  UNL1        0.1453
     27 O         140.7189  139.5671  169.1101 O.3     1  UNL1       -0.4044
     28 C         139.4156  140.0781  169.6489 C.3     1  UNL1        0.5753
     29 F         138.1123  140.5892  170.1876 F       1  UNL1       -0.1328
     30 F         138.7852  139.8920  168.3006 F       1  UNL1       -0.1328
     31 F         140.0460  140.2643  170.9972 F       1  UNL1       -0.1328
@<TRIPOS>UNITY_ATOM_ATTR
20 1
charge -1
@<TRIPOS>BOND
     1    16    17    1
     2    17    18    1
     3    18    19    1
     4    19    20   ar
     5    19    21   ar
     6    17    10    1
     7    10    11   ar
     8    11    12   ar
     9    12    13   ar
    10    13    14   ar
    11    14     1    1
    12     1     2   ar
    13     2    22    1
    14    22    23   am
    15    22    24    2
    16     2     3   ar
    17     3     4   ar
    18     4     5   ar
    19     5     6   ar
    20     6     7   ar
    21     7    27    1
    22    27    28    1
    23    28    29    1
    24    28    30    1
    25    28    31    1
    26     7     8   ar
    27     8     9   ar
    28    14    15   ar
    29    15    10   ar
    30     9     1   ar
    31     9     4   ar
    32    23    25    1
    33    23    26    1
