@<TRIPOS>MOLECULE
*****
 45 50 0 0 0
SMALL
GASTEIGER

@<TRIPOS>ATOM
      1 C         139.1806  141.8458  159.6258 C.2     1  UNL1        0.2495
      2 O         138.5320  142.2140  160.9273 O.2     1  UNL1       -0.2699
      3 N         140.0394  140.6193  159.5364 N.am    1  UNL1       -0.2674
      4 C         140.7489  140.1273  158.3098 C.3     1  UNL1        0.1185
      5 C         141.4876  138.8733  158.6732 C.3     1  UNL1        0.1288
      6 C         141.2346  138.5904  160.1244 C.3     1  UNL1        0.0554
      7 C         140.3396  139.6694  160.6579 C.3     1  UNL1        0.1540
      8 C         139.7189  144.6740  156.8942 C.ar    1  UNL1        0.1361
      9 C         139.9293  143.8157  158.1063 C.ar    1  UNL1        0.0411
     10 C         138.9702  142.7041  158.4138 C.ar    1  UNL1        0.0566
     11 C         137.8008  142.4509  157.5092 C.ar    1  UNL1        0.0044
     12 C         137.5904  143.3092  156.2972 C.ar    1  UNL1        0.0002
     13 C         138.5495  144.4207  155.9897 C.ar    1  UNL1        0.0274
     14 C         138.3392  145.2790  154.7777 C.3     1  UNL1        0.0952
     15 N         138.1921  146.7643  154.9268 N.3     1  UNL1       -0.3174
     16 H         137.3318  146.9716  155.4341 H       1  UNL1        0.1192
     17 H         138.1551  147.1967  154.0038 H       1  UNL1        0.1192
     18 C         141.8816  145.9997  157.4561 C.3     1  UNL1        0.2525
     19 O         140.6780  145.7856  156.5868 O.3     1  UNL1       -0.4717
     20 N         142.3311  138.0474  157.7479 N.ar    1  UNL1       -0.2307
     21 C         142.1237  136.5976  157.4235 C.ar    1  UNL1        0.1131
     22 C         143.1946  136.1805  156.4596 C.ar    1  UNL1        0.1005
     23 N         144.0639  137.3724  156.1882 N.ar    1  UNL1       -0.1332
     24 N         143.5303  138.5263  156.9844 N.ar    1  UNL1       -0.0641
     25 C         143.3661  134.8117  155.8705 C.3     1  UNL1        0.0437
     26 C         143.9224  133.4213  155.9554 C.3     1  UNL1        0.0064
     27 C         143.1068  133.8314  154.7652 C.3     1  UNL1        0.0064
     28 C         139.8336  139.7793  162.0657 C.2     1  UNL1        0.2407
     29 O         138.7655  138.8460  162.5537 O.2     1  UNL1       -0.2733
     30 N         140.3955  140.8225  162.9855 N.am    1  UNL1       -0.3023
     31 H         141.0965  141.4350  162.6652 H       1  UNL1        0.1495
     32 C         139.8895  140.9323  164.3932 C.3     1  UNL1        0.0981
     33 C         140.5689  141.8512  165.3649 C.3     1  UNL1        0.0641
     34 C         141.5070  142.9098  164.8658 C.ar    1  UNL1       -0.0168
     35 C         142.9895  142.6947  164.9417 C.ar    1  UNL1       -0.0039
     36 C         143.9276  143.7533  164.4426 C.ar    1  UNL1       -0.0003
     37 C         143.3832  145.0272  163.8674 C.ar    1  UNL1       -0.0000
     38 C         141.9006  145.2424  163.7914 C.ar    1  UNL1       -0.0003
     39 C         140.9625  144.1838  164.2906 C.ar    1  UNL1       -0.0039
     40 C         140.3102  141.7113  166.8358 C.ar    1  UNL1       -0.0168
     41 C         140.5837  142.8621  167.7582 C.ar    1  UNL1       -0.0039
     42 C         140.3249  142.7222  169.2291 C.ar    1  UNL1       -0.0003
     43 C         139.7928  141.4315  169.7776 C.ar    1  UNL1       -0.0000
     44 C         139.5193  140.2806  168.8552 C.ar    1  UNL1       -0.0003
     45 C         139.7780  140.4205  167.3843 C.ar    1  UNL1       -0.0039
@<TRIPOS>BOND
     1    18    19    1
     2    19     8    1
     3     8     9   ar
     4     9    10   ar
     5    10     1    1
     6     1     2    2
     7     1     3   am
     8     3     4    1
     9     4     5    1
    10     5    20    1
    11    20    21   ar
    12    21    22   ar
    13    22    25    1
    14    25    26    1
    15    26    27    1
    16    22    23   ar
    17    23    24   ar
    18     5     6    1
    19     6     7    1
    20     7    28    1
    21    28    29    2
    22    28    30   am
    23    30    32    1
    24    32    33    1
    25    33    34    1
    26    34    35   ar
    27    35    36   ar
    28    36    37   ar
    29    37    38   ar
    30    38    39   ar
    31    33    40    1
    32    40    41   ar
    33    41    42   ar
    34    42    43   ar
    35    43    44   ar
    36    44    45   ar
    37    10    11   ar
    38    11    12   ar
    39    12    13   ar
    40    13    14    1
    41    14    15    1
    42    13     8   ar
    43     7     3    1
    44    39    34   ar
    45    45    40   ar
    46    24    20   ar
    47    27    25    1
    48    30    31    1
    49    15    16    1
    50    15    17    1
@<TRIPOS>MOLECULE
*****
 45 50 0 0 0
SMALL
GASTEIGER

@<TRIPOS>ATOM
      1 C         138.8748  141.9391  159.7459 C.2     1  UNL1        0.2495
      2 O         138.2871  142.4333  161.0345 O.2     1  UNL1       -0.2699
      3 N         139.5934  140.6231  159.7053 N.am    1  UNL1       -0.2674
      4 C         140.2292  140.0025  158.4967 C.3     1  UNL1        0.1185
      5 C         140.8312  138.6925  158.9106 C.3     1  UNL1        0.1288
      6 C         140.5675  138.5033  160.3751 C.3     1  UNL1        0.0554
      7 C         139.8025  139.6965  160.8662 C.3     1  UNL1        0.1540
      8 C         139.5978  144.6780  156.9663 C.ar    1  UNL1        0.1361
      9 C         139.7288  143.8561  158.2143 C.ar    1  UNL1        0.0411
     10 C         138.7439  142.7609  158.4979 C.ar    1  UNL1        0.0566
     11 C         137.6279  142.4876  157.5335 C.ar    1  UNL1        0.0044
     12 C         137.4970  143.3094  156.2855 C.ar    1  UNL1        0.0002
     13 C         138.4820  144.4046  156.0020 C.ar    1  UNL1        0.0274
     14 C         138.3510  145.2264  154.7540 C.3     1  UNL1        0.0952
     15 N         138.1786  146.7134  154.8499 N.3     1  UNL1       -0.3174
     16 H         137.2819  146.9242  155.2879 H       1  UNL1        0.1192
     17 H         138.2040  147.1196  153.9146 H       1  UNL1        0.1192
     18 C         141.8377  145.8827  157.4972 C.3     1  UNL1        0.2525
     19 O         140.5828  145.7732  156.6827 O.3     1  UNL1       -0.4717
     20 N         141.5676  137.7390  158.0170 N.ar    1  UNL1       -0.2307
     21 C         141.0214  137.0890  156.7804 C.ar    1  UNL1        0.1131
     22 C         142.0958  136.2164  156.2022 C.ar    1  UNL1        0.1005
     23 N         143.3060  136.3271  157.0815 N.ar    1  UNL1       -0.1332
     24 N         142.9796  137.2681  158.2031 N.ar    1  UNL1       -0.0641
     25 C         141.9802  135.3800  154.9625 C.3     1  UNL1        0.0437
     26 C         141.7958  134.0415  154.3110 C.3     1  UNL1        0.0064
     27 C         141.9643  135.2698  153.4666 C.3     1  UNL1        0.0064
     28 C         139.3296  139.9232  162.2715 C.2     1  UNL1        0.2407
     29 O         138.1163  139.2025  162.7801 O.2     1  UNL1       -0.2733
     30 N         140.0699  140.8706  163.1684 N.am    1  UNL1       -0.3023
     31 H         140.8662  141.3436  162.8347 H       1  UNL1        0.1495
     32 C         139.5970  141.0973  164.5737 C.3     1  UNL1        0.0981
     33 C         140.4290  141.9070  165.5237 C.3     1  UNL1        0.0641
     34 C         140.2528  141.7407  167.0039 C.ar    1  UNL1       -0.0168
     35 C         139.8030  140.4233  167.5624 C.ar    1  UNL1       -0.0039
     36 C         139.6269  140.2570  169.0428 C.ar    1  UNL1       -0.0003
     37 C         139.9005  141.4083  169.9646 C.ar    1  UNL1       -0.0000
     38 C         140.3504  142.7258  169.4060 C.ar    1  UNL1       -0.0003
     39 C         140.5265  142.8920  167.9258 C.ar    1  UNL1       -0.0039
     40 C         141.4371  142.8828  164.9932 C.ar    1  UNL1       -0.0168
     41 C         140.9796  144.1539  164.3412 C.ar    1  UNL1       -0.0039
     42 C         141.9877  145.1298  163.8107 C.ar    1  UNL1       -0.0003
     43 C         143.4533  144.8346  163.9322 C.ar    1  UNL1       -0.0000
     44 C         143.9109  143.5635  164.5842 C.ar    1  UNL1       -0.0003
     45 C         142.9028  142.5877  165.1146 C.ar    1  UNL1       -0.0039
@<TRIPOS>BOND
     1    18    19    1
     2    19     8    1
     3     8     9   ar
     4     9    10   ar
     5    10     1    1
     6     1     2    2
     7     1     3   am
     8     3     4    1
     9     4     5    1
    10     5    20    1
    11    20    21   ar
    12    21    22   ar
    13    22    25    1
    14    25    26    1
    15    26    27    1
    16    22    23   ar
    17    23    24   ar
    18     5     6    1
    19     6     7    1
    20     7    28    1
    21    28    29    2
    22    28    30   am
    23    30    32    1
    24    32    33    1
    25    33    34    1
    26    34    35   ar
    27    35    36   ar
    28    36    37   ar
    29    37    38   ar
    30    38    39   ar
    31    33    40    1
    32    40    41   ar
    33    41    42   ar
    34    42    43   ar
    35    43    44   ar
    36    44    45   ar
    37    10    11   ar
    38    11    12   ar
    39    12    13   ar
    40    13    14    1
    41    14    15    1
    42    13     8   ar
    43     7     3    1
    44    39    34   ar
    45    45    40   ar
    46    24    20   ar
    47    27    25    1
    48    30    31    1
    49    15    16    1
    50    15    17    1
@<TRIPOS>MOLECULE
*****
 45 50 0 0 0
SMALL
GASTEIGER

@<TRIPOS>ATOM
      1 C         140.8420  142.6056  160.1916 C.2     1  UNL1        0.2495
      2 O         140.5015  143.0994  161.5665 O.2     1  UNL1       -0.2699
      3 N         142.2774  142.4516  159.7841 N.am    1  UNL1       -0.2674
      4 C         142.7688  141.9717  158.4506 C.3     1  UNL1        0.1185
      5 C         144.2685  141.9739  158.4810 C.3     1  UNL1        0.1288
      6 C         144.7040  142.4552  159.8333 C.3     1  UNL1        0.0554
      7 C         143.4734  142.7504  160.6386 C.3     1  UNL1        0.1540
      8 C         138.3071  142.8779  157.1502 C.ar    1  UNL1        0.1361
      9 C         139.4020  143.2177  158.1176 C.ar    1  UNL1        0.0411
     10 C         139.7472  142.2658  159.2242 C.ar    1  UNL1        0.0566
     11 C         138.9975  140.9740  159.3635 C.ar    1  UNL1        0.0044
     12 C         137.9027  140.6342  158.3961 C.ar    1  UNL1        0.0002
     13 C         137.5575  141.5862  157.2895 C.ar    1  UNL1        0.0274
     14 C         136.4626  141.2464  156.3221 C.3     1  UNL1        0.0952
     15 N         135.5979  142.3335  155.7560 N.3     1  UNL1       -0.3174
     16 H         135.0423  142.7498  156.5033 H       1  UNL1        0.1192
     17 H         134.9766  141.9403  155.0490 H       1  UNL1        0.1192
     18 C         138.9026  144.9442  155.6921 C.3     1  UNL1        0.2525
     19 O         137.9619  143.8298  156.0435 O.3     1  UNL1       -0.4717
     20 N         145.1737  141.5665  157.3565 N.ar    1  UNL1       -0.2307
     21 C         146.3630  142.3338  156.8596 C.ar    1  UNL1        0.1131
     22 C         146.9728  141.5616  155.7275 C.ar    1  UNL1        0.1005
     23 N         146.1605  140.3171  155.5245 N.ar    1  UNL1       -0.1332
     24 N         145.0485  140.3200  156.5313 N.ar    1  UNL1       -0.0641
     25 C         148.1826  141.9635  154.9370 C.3     1  UNL1        0.0437
     26 C         148.8023  142.7505  153.8205 C.3     1  UNL1        0.0064
     27 C         149.6584  141.8726  154.6844 C.3     1  UNL1        0.0064
     28 C         143.4441  143.2557  162.0507 C.2     1  UNL1        0.2407
     29 O         143.7001  144.7064  162.3336 O.2     1  UNL1       -0.2733
     30 N         143.1588  142.3104  163.1799 N.am    1  UNL1       -0.3023
     31 H         142.9908  141.3583  162.9943 H       1  UNL1        0.1495
     32 C         143.1295  142.8157  164.5918 C.3     1  UNL1        0.0981
     33 C         141.9848  142.4580  165.4929 C.3     1  UNL1        0.0641
     34 C         140.5908  142.8842  165.1398 C.ar    1  UNL1       -0.0168
     35 C         140.2942  144.3294  164.8690 C.ar    1  UNL1       -0.0039
     36 C         138.9001  144.7557  164.5159 C.ar    1  UNL1       -0.0003
     37 C         137.8025  143.7367  164.4335 C.ar    1  UNL1       -0.0000
     38 C         138.0990  142.2914  164.7043 C.ar    1  UNL1       -0.0003
     39 C         139.4931  141.8651  165.0574 C.ar    1  UNL1       -0.0039
     40 C         142.2344  141.6739  166.7471 C.ar    1  UNL1       -0.0168
     41 C         142.3059  142.3778  168.0698 C.ar    1  UNL1       -0.0039
     42 C         142.5555  141.5937  169.3241 C.ar    1  UNL1       -0.0003
     43 C         142.7336  140.1060  169.2556 C.ar    1  UNL1       -0.0000
     44 C         142.6621  139.4021  167.9329 C.ar    1  UNL1       -0.0003
     45 C         142.4125  140.1861  166.6787 C.ar    1  UNL1       -0.0039
@<TRIPOS>BOND
     1    18    19    1
     2    19     8    1
     3     8     9   ar
     4     9    10   ar
     5    10     1    1
     6     1     2    2
     7     1     3   am
     8     3     4    1
     9     4     5    1
    10     5    20    1
    11    20    21   ar
    12    21    22   ar
    13    22    25    1
    14    25    26    1
    15    26    27    1
    16    22    23   ar
    17    23    24   ar
    18     5     6    1
    19     6     7    1
    20     7    28    1
    21    28    29    2
    22    28    30   am
    23    30    32    1
    24    32    33    1
    25    33    34    1
    26    34    35   ar
    27    35    36   ar
    28    36    37   ar
    29    37    38   ar
    30    38    39   ar
    31    33    40    1
    32    40    41   ar
    33    41    42   ar
    34    42    43   ar
    35    43    44   ar
    36    44    45   ar
    37    10    11   ar
    38    11    12   ar
    39    12    13   ar
    40    13    14    1
    41    14    15    1
    42    13     8   ar
    43     7     3    1
    44    39    34   ar
    45    45    40   ar
    46    24    20   ar
    47    27    25    1
    48    30    31    1
    49    15    16    1
    50    15    17    1
@<TRIPOS>MOLECULE
*****
 45 50 0 0 0
SMALL
GASTEIGER

@<TRIPOS>ATOM
      1 C         140.8532  142.6246  160.0803 C.2     1  UNL1        0.2495
      2 O         140.5100  143.0974  161.4619 O.2     1  UNL1       -0.2699
      3 N         142.2893  142.4970  159.6664 N.am    1  UNL1       -0.2674
      4 C         142.7833  142.0400  158.3258 C.3     1  UNL1        0.1185
      5 C         144.2829  142.0646  158.3513 C.3     1  UNL1        0.1288
      6 C         144.7157  142.5369  159.7076 C.3     1  UNL1        0.0554
      7 C         143.4836  142.8041  160.5204 C.3     1  UNL1        0.1540
      8 C         138.2899  142.9024  157.0632 C.ar    1  UNL1        0.1361
      9 C         139.3828  143.2476  158.0309 C.ar    1  UNL1        0.0411
     10 C         139.7603  142.2794  159.1126 C.ar    1  UNL1        0.0566
     11 C         139.0447  140.9660  159.2267 C.ar    1  UNL1        0.0044
     12 C         137.9518  140.6208  158.2591 C.ar    1  UNL1        0.0002
     13 C         137.5744  141.5890  157.1773 C.ar    1  UNL1        0.0274
     14 C         136.4815  141.2438  156.2097 C.3     1  UNL1        0.0952
     15 N         135.5381  142.3081  155.7329 N.3     1  UNL1       -0.3174
     16 H         134.9745  142.6386  156.5162 H       1  UNL1        0.1192
     17 H         134.9269  141.9230  155.0128 H       1  UNL1        0.1192
     18 C         138.7035  143.9179  154.7079 C.3     1  UNL1        0.2525
     19 O         137.9124  143.8706  155.9815 O.3     1  UNL1       -0.4717
     20 N         145.1902  141.6839  157.2192 N.ar    1  UNL1       -0.2307
     21 C         146.5414  142.2708  156.9365 C.ar    1  UNL1        0.1131
     22 C         147.0920  141.5989  155.7136 C.ar    1  UNL1        0.1005
     23 N         146.0811  140.5968  155.2405 N.ar    1  UNL1       -0.1332
     24 N         144.9057  140.6492  156.1710 N.ar    1  UNL1       -0.0641
     25 C         148.4202  141.8799  155.0758 C.3     1  UNL1        0.0437
     26 C         149.9151  141.7560  155.0792 C.3     1  UNL1        0.0064
     27 C         149.2259  142.4906  153.9677 C.3     1  UNL1        0.0064
     28 C         143.4515  143.2926  161.9382 C.2     1  UNL1        0.2407
     29 O         143.7016  144.7410  162.2383 O.2     1  UNL1       -0.2733
     30 N         143.1694  142.3331  163.0561 N.am    1  UNL1       -0.3023
     31 H         143.0052  141.3825  162.8592 H       1  UNL1        0.1495
     32 C         143.1373  142.8216  164.4738 C.3     1  UNL1        0.0981
     33 C         141.9946  142.4471  165.3706 C.3     1  UNL1        0.0641
     34 C         142.2449  141.6285  166.6022 C.ar    1  UNL1       -0.0168
     35 C         142.4486  140.1467  166.4894 C.ar    1  UNL1       -0.0039
     36 C         142.6990  139.3280  167.7212 C.ar    1  UNL1       -0.0003
     37 C         142.7456  139.9912  169.0658 C.ar    1  UNL1       -0.0000
     38 C         142.5419  141.4731  169.1786 C.ar    1  UNL1       -0.0003
     39 C         142.2916  142.2917  167.9469 C.ar    1  UNL1       -0.0039
     40 C         140.6016  142.8912  165.0355 C.ar    1  UNL1       -0.0168
     41 C         140.3161  144.3430  164.7892 C.ar    1  UNL1       -0.0039
     42 C         138.9230  144.7872  164.4540 C.ar    1  UNL1       -0.0003
     43 C         137.8156  143.7795  164.3653 C.ar    1  UNL1       -0.0000
     44 C         138.1010  142.3276  164.6116 C.ar    1  UNL1       -0.0003
     45 C         139.4940  141.8835  164.9467 C.ar    1  UNL1       -0.0039
@<TRIPOS>BOND
     1    18    19    1
     2    19     8    1
     3     8     9   ar
     4     9    10   ar
     5    10     1    1
     6     1     2    2
     7     1     3   am
     8     3     4    1
     9     4     5    1
    10     5    20    1
    11    20    21   ar
    12    21    22   ar
    13    22    25    1
    14    25    26    1
    15    26    27    1
    16    22    23   ar
    17    23    24   ar
    18     5     6    1
    19     6     7    1
    20     7    28    1
    21    28    29    2
    22    28    30   am
    23    30    32    1
    24    32    33    1
    25    33    34    1
    26    34    35   ar
    27    35    36   ar
    28    36    37   ar
    29    37    38   ar
    30    38    39   ar
    31    33    40    1
    32    40    41   ar
    33    41    42   ar
    34    42    43   ar
    35    43    44   ar
    36    44    45   ar
    37    10    11   ar
    38    11    12   ar
    39    12    13   ar
    40    13    14    1
    41    14    15    1
    42    13     8   ar
    43     7     3    1
    44    39    34   ar
    45    45    40   ar
    46    24    20   ar
    47    27    25    1
    48    30    31    1
    49    15    16    1
    50    15    17    1
@<TRIPOS>MOLECULE
*****
 45 50 0 0 0
SMALL
GASTEIGER

@<TRIPOS>ATOM
      1 C         141.4389  143.5450  159.8042 C.2     1  UNL1        0.2495
      2 O         141.4516  144.2810  161.1112 O.2     1  UNL1       -0.2699
      3 N         142.0618  142.1841  159.7037 N.am    1  UNL1       -0.2674
      4 C         142.1251  141.3323  158.4707 C.3     1  UNL1        0.1185
      5 C         142.8332  140.0578  158.8235 C.3     1  UNL1        0.1288
      6 C         143.2075  140.1220  160.2746 C.3     1  UNL1        0.0554
      7 C         142.7307  141.4361  160.8186 C.3     1  UNL1        0.1540
      8 C         139.1949  144.0080  156.5637 C.ar    1  UNL1        0.1361
      9 C         139.8305  143.3831  157.7702 C.ar    1  UNL1        0.0411
     10 C         140.8033  144.1698  158.5977 C.ar    1  UNL1        0.0566
     11 C         141.1405  145.5815  158.2187 C.ar    1  UNL1        0.0044
     12 C         140.5049  146.2063  157.0122 C.ar    1  UNL1        0.0002
     13 C         139.5321  145.4196  156.1848 C.ar    1  UNL1        0.0274
     14 C         138.8965  146.0444  154.9783 C.3     1  UNL1        0.0952
     15 N         137.4156  145.9320  154.7678 N.3     1  UNL1       -0.3174
     16 H         137.1686  144.9559  154.6046 H       1  UNL1        0.1192
     17 H         137.1437  146.4912  153.9593 H       1  UNL1        0.1192
     18 C         137.0101  142.6142  156.3787 C.3     1  UNL1        0.2525
     19 O         138.2221  143.2212  155.7363 O.3     1  UNL1       -0.4717
     20 N         143.1171  138.9192  157.8892 N.ar    1  UNL1       -0.2307
     21 C         142.5298  137.5415  157.9742 C.ar    1  UNL1        0.1131
     22 C         143.0879  136.7292  156.8434 C.ar    1  UNL1        0.1005
     23 N         144.0201  137.6048  156.0596 N.ar    1  UNL1       -0.1332
     24 N         144.0381  138.9584  156.7059 N.ar    1  UNL1       -0.0641
     25 C         142.7697  135.2934  156.5483 C.3     1  UNL1        0.0437
     26 C         142.0069  134.2663  155.7653 C.3     1  UNL1        0.0064
     27 C         142.9814  133.8335  156.8203 C.3     1  UNL1        0.0064
     28 C         142.8942  141.9177  162.2298 C.2     1  UNL1        0.2407
     29 O         144.2490  142.3200  162.7327 O.2     1  UNL1       -0.2733
     30 N         141.7031  141.9970  163.1381 N.am    1  UNL1       -0.3023
     31 H         140.8140  141.7329  162.8080 H       1  UNL1        0.1495
     32 C         141.8667  142.4785  164.5491 C.3     1  UNL1        0.0981
     33 C         141.4001  141.6256  165.6915 C.3     1  UNL1        0.0641
     34 C         140.7441  140.3040  165.4218 C.ar    1  UNL1       -0.0168
     35 C         141.5831  139.0991  165.1144 C.ar    1  UNL1       -0.0039
     36 C         140.9271  137.7774  164.8446 C.ar    1  UNL1       -0.0003
     37 C         139.4322  137.6605  164.8822 C.ar    1  UNL1       -0.0000
     38 C         138.5932  138.8654  165.1896 C.ar    1  UNL1       -0.0003
     39 C         139.2491  140.1871  165.4593 C.ar    1  UNL1       -0.0039
     40 C         141.5896  142.0945  167.1037 C.ar    1  UNL1       -0.0168
     41 C         140.4472  142.7237  167.8446 C.ar    1  UNL1       -0.0039
     42 C         140.6366  143.1927  169.2569 C.ar    1  UNL1       -0.0003
     43 C         141.9684  143.0324  169.9281 C.ar    1  UNL1       -0.0000
     44 C         143.1109  142.4032  169.1871 C.ar    1  UNL1       -0.0003
     45 C         142.9214  141.9342  167.7750 C.ar    1  UNL1       -0.0039
@<TRIPOS>BOND
     1    18    19    1
     2    19     8    1
     3     8     9   ar
     4     9    10   ar
     5    10     1    1
     6     1     2    2
     7     1     3   am
     8     3     4    1
     9     4     5    1
    10     5    20    1
    11    20    21   ar
    12    21    22   ar
    13    22    25    1
    14    25    26    1
    15    26    27    1
    16    22    23   ar
    17    23    24   ar
    18     5     6    1
    19     6     7    1
    20     7    28    1
    21    28    29    2
    22    28    30   am
    23    30    32    1
    24    32    33    1
    25    33    34    1
    26    34    35   ar
    27    35    36   ar
    28    36    37   ar
    29    37    38   ar
    30    38    39   ar
    31    33    40    1
    32    40    41   ar
    33    41    42   ar
    34    42    43   ar
    35    43    44   ar
    36    44    45   ar
    37    10    11   ar
    38    11    12   ar
    39    12    13   ar
    40    13    14    1
    41    14    15    1
    42    13     8   ar
    43     7     3    1
    44    39    34   ar
    45    45    40   ar
    46    24    20   ar
    47    27    25    1
    48    30    31    1
    49    15    16    1
    50    15    17    1
@<TRIPOS>MOLECULE
*****
 45 50 0 0 0
SMALL
GASTEIGER

@<TRIPOS>ATOM
      1 C         141.8838  143.0107  160.0969 C.2     1  UNL1        0.2495
      2 O         142.0098  143.6647  161.4410 O.2     1  UNL1       -0.2699
      3 N         142.4315  141.6313  159.8797 N.am    1  UNL1       -0.2674
      4 C         142.3799  140.8539  158.5979 C.3     1  UNL1        0.1185
      5 C         143.0434  139.5291  158.8322 C.3     1  UNL1        0.1288
      6 C         143.5051  139.4878  160.2588 C.3     1  UNL1        0.0554
      7 C         143.1269  140.7870  160.9061 C.3     1  UNL1        0.1540
      8 C         139.2929  143.8960  157.2240 C.ar    1  UNL1        0.1361
      9 C         139.9665  143.1705  158.3509 C.ar    1  UNL1        0.0411
     10 C         141.2101  143.7362  158.9700 C.ar    1  UNL1        0.0566
     11 C         141.7801  145.0276  158.4623 C.ar    1  UNL1        0.0044
     12 C         141.1064  145.7530  157.3355 C.ar    1  UNL1        0.0002
     13 C         139.8628  145.1873  156.7163 C.ar    1  UNL1        0.0274
     14 C         139.1892  145.9128  155.5895 C.3     1  UNL1        0.0952
     15 N         139.0545  145.2550  154.2481 N.3     1  UNL1       -0.3174
     16 H         139.9797  145.1253  153.8387 H       1  UNL1        0.1192
     17 H         138.4912  145.8446  153.6354 H       1  UNL1        0.1192
     18 C         138.1275  142.0912  155.7630 C.3     1  UNL1        0.2525
     19 O         138.0493  143.3303  156.6048 O.3     1  UNL1       -0.4717
     20 N         143.2151  138.4374  157.8180 N.ar    1  UNL1       -0.2307
     21 C         142.5846  137.0774  157.8711 C.ar    1  UNL1        0.1131
     22 C         143.0273  136.3136  156.6585 C.ar    1  UNL1        0.1005
     23 N         143.9314  137.2015  155.8558 N.ar    1  UNL1       -0.1332
     24 N         144.0475  138.5142  156.5724 N.ar    1  UNL1       -0.0641
     25 C         142.6348  134.9085  156.3097 C.3     1  UNL1        0.0437
     26 C         142.8187  133.4291  156.4759 C.3     1  UNL1        0.0064
     27 C         141.7711  133.9542  155.5394 C.3     1  UNL1        0.0064
     28 C         143.3968  141.1740  162.3300 C.2     1  UNL1        0.2407
     29 O         144.7904  141.5237  162.7610 O.2     1  UNL1       -0.2733
     30 N         142.2732  141.2114  163.3231 N.am    1  UNL1       -0.3023
     31 H         141.3585  140.9819  163.0403 H       1  UNL1        0.1495
     32 C         142.5430  141.5983  164.7469 C.3     1  UNL1        0.0981
     33 C         141.4887  142.3075  165.5441 C.3     1  UNL1        0.0641
     34 C         141.6586  142.4826  167.0241 C.ar    1  UNL1       -0.0168
     35 C         140.5013  142.9371  167.8632 C.ar    1  UNL1       -0.0039
     36 C         140.6711  143.1122  169.3433 C.ar    1  UNL1       -0.0003
     37 C         141.9982  142.8329  169.9842 C.ar    1  UNL1       -0.0000
     38 C         143.1556  142.3784  169.1450 C.ar    1  UNL1       -0.0003
     39 C         142.9857  142.2033  167.6650 C.ar    1  UNL1       -0.0039
     40 C         140.2646  142.8416  164.8613 C.ar    1  UNL1       -0.0168
     41 C         140.2263  144.2676  164.3979 C.ar    1  UNL1       -0.0039
     42 C         139.0021  144.8017  163.7150 C.ar    1  UNL1       -0.0003
     43 C         137.8164  143.9098  163.4955 C.ar    1  UNL1       -0.0000
     44 C         137.8546  142.4836  163.9589 C.ar    1  UNL1       -0.0003
     45 C         139.0788  141.9495  164.6418 C.ar    1  UNL1       -0.0039
@<TRIPOS>BOND
     1    18    19    1
     2    19     8    1
     3     8     9   ar
     4     9    10   ar
     5    10     1    1
     6     1     2    2
     7     1     3   am
     8     3     4    1
     9     4     5    1
    10     5    20    1
    11    20    21   ar
    12    21    22   ar
    13    22    25    1
    14    25    26    1
    15    26    27    1
    16    22    23   ar
    17    23    24   ar
    18     5     6    1
    19     6     7    1
    20     7    28    1
    21    28    29    2
    22    28    30   am
    23    30    32    1
    24    32    33    1
    25    33    34    1
    26    34    35   ar
    27    35    36   ar
    28    36    37   ar
    29    37    38   ar
    30    38    39   ar
    31    33    40    1
    32    40    41   ar
    33    41    42   ar
    34    42    43   ar
    35    43    44   ar
    36    44    45   ar
    37    10    11   ar
    38    11    12   ar
    39    12    13   ar
    40    13    14    1
    41    14    15    1
    42    13     8   ar
    43     7     3    1
    44    39    34   ar
    45    45    40   ar
    46    24    20   ar
    47    27    25    1
    48    30    31    1
    49    15    16    1
    50    15    17    1
@<TRIPOS>MOLECULE
*****
 45 50 0 0 0
SMALL
GASTEIGER

@<TRIPOS>ATOM
      1 C         139.2590  141.9684  159.8237 C.2     1  UNL1        0.2495
      2 O         138.5321  142.2248  161.1106 O.2     1  UNL1       -0.2699
      3 N         139.8999  140.6348  159.5772 N.am    1  UNL1       -0.2674
      4 C         140.6562  140.2343  158.3453 C.3     1  UNL1        0.1185
      5 C         141.1207  138.8195  158.5260 C.3     1  UNL1        0.1288
      6 C         140.6514  138.3456  159.8696 C.3     1  UNL1        0.0554
      7 C         139.8969  139.4675  160.5192 C.3     1  UNL1        0.1540
      8 C         138.7337  143.9510  156.4261 C.ar    1  UNL1        0.1361
      9 C         138.6478  142.8738  157.4664 C.ar    1  UNL1        0.0411
     10 C         139.3449  143.0456  158.7834 C.ar    1  UNL1        0.0566
     11 C         140.1281  144.2947  159.0601 C.ar    1  UNL1        0.0044
     12 C         140.2140  145.3719  158.0198 C.ar    1  UNL1        0.0002
     13 C         139.5169  145.2001  156.7028 C.ar    1  UNL1        0.0274
     14 C         139.6028  146.2772  155.6625 C.3     1  UNL1        0.0952
     15 N         138.3541  146.7888  155.0077 N.3     1  UNL1       -0.3174
     16 H         137.9339  146.0457  154.4495 H       1  UNL1        0.1192
     17 H         138.5854  147.5779  154.4042 H       1  UNL1        0.1192
     18 C         136.5989  143.3526  155.0716 C.3     1  UNL1        0.2525
     19 O         138.0366  143.7792  155.1092 O.3     1  UNL1       -0.4717
     20 N         141.9150  138.0192  157.5368 N.ar    1  UNL1       -0.2307
     21 C         141.3761  136.9531  156.6297 C.ar    1  UNL1        0.1131
     22 C         142.5158  136.4195  155.8133 C.ar    1  UNL1        0.1005
     23 N         143.7591  137.1558  156.2159 N.ar    1  UNL1       -0.1332
     24 N         143.3878  138.1445  157.2812 N.ar    1  UNL1       -0.0641
     25 C         142.4276  135.3392  154.7764 C.3     1  UNL1        0.0437
     26 C         142.6470  133.9139  154.3634 C.3     1  UNL1        0.0064
     27 C         142.0555  134.8933  153.3934 C.3     1  UNL1        0.0064
     28 C         139.2526  139.4289  161.8732 C.2     1  UNL1        0.2407
     29 O         137.7579  139.3830  161.9915 O.2     1  UNL1       -0.2733
     30 N         140.1027  139.4362  163.1090 N.am    1  UNL1       -0.3023
     31 H         141.0837  139.4664  163.0314 H       1  UNL1        0.1495
     32 C         139.4584  139.3976  164.4629 C.3     1  UNL1        0.0981
     33 C         139.7532  140.4744  165.4649 C.3     1  UNL1        0.0641
     34 C         139.2764  141.8756  165.2222 C.ar    1  UNL1       -0.0168
     35 C         137.9589  142.1130  164.5455 C.ar    1  UNL1       -0.0039
     36 C         137.4820  143.5143  164.3028 C.ar    1  UNL1       -0.0003
     37 C         138.3227  144.6783  164.7368 C.ar    1  UNL1       -0.0000
     38 C         139.6403  144.4410  165.4135 C.ar    1  UNL1       -0.0003
     39 C         140.1171  143.0397  165.6562 C.ar    1  UNL1       -0.0039
     40 C         140.5248  140.1497  166.7095 C.ar    1  UNL1       -0.0168
     41 C         139.8560  140.2324  168.0496 C.ar    1  UNL1       -0.0039
     42 C         140.6277  139.9077  169.2943 C.ar    1  UNL1       -0.0003
     43 C         142.0680  139.5002  169.1989 C.ar    1  UNL1       -0.0000
     44 C         142.7369  139.4174  167.8588 C.ar    1  UNL1       -0.0003
     45 C         141.9653  139.7421  166.6142 C.ar    1  UNL1       -0.0039
@<TRIPOS>BOND
     1    18    19    1
     2    19     8    1
     3     8     9   ar
     4     9    10   ar
     5    10     1    1
     6     1     2    2
     7     1     3   am
     8     3     4    1
     9     4     5    1
    10     5    20    1
    11    20    21   ar
    12    21    22   ar
    13    22    25    1
    14    25    26    1
    15    26    27    1
    16    22    23   ar
    17    23    24   ar
    18     5     6    1
    19     6     7    1
    20     7    28    1
    21    28    29    2
    22    28    30   am
    23    30    32    1
    24    32    33    1
    25    33    34    1
    26    34    35   ar
    27    35    36   ar
    28    36    37   ar
    29    37    38   ar
    30    38    39   ar
    31    33    40    1
    32    40    41   ar
    33    41    42   ar
    34    42    43   ar
    35    43    44   ar
    36    44    45   ar
    37    10    11   ar
    38    11    12   ar
    39    12    13   ar
    40    13    14    1
    41    14    15    1
    42    13     8   ar
    43     7     3    1
    44    39    34   ar
    45    45    40   ar
    46    24    20   ar
    47    27    25    1
    48    30    31    1
    49    15    16    1
    50    15    17    1
@<TRIPOS>MOLECULE
*****
 45 50 0 0 0
SMALL
GASTEIGER

@<TRIPOS>ATOM
      1 C         139.9671  142.2908  159.9778 C.2     1  UNL1        0.2495
      2 O         139.3573  142.5888  161.3155 O.2     1  UNL1       -0.2699
      3 N         140.6263  140.9659  159.7325 N.am    1  UNL1       -0.2674
      4 C         141.2756  140.5276  158.4533 C.3     1  UNL1        0.1185
      5 C         141.8025  139.1375  158.6535 C.3     1  UNL1        0.1288
      6 C         141.4789  138.7167  160.0564 C.3     1  UNL1        0.0554
      7 C         140.7520  139.8468  160.7233 C.3     1  UNL1        0.1540
      8 C         138.9426  144.1563  156.6281 C.ar    1  UNL1        0.1361
      9 C         138.9920  143.1294  157.7205 C.ar    1  UNL1        0.0411
     10 C         139.9178  143.3176  158.8856 C.ar    1  UNL1        0.0566
     11 C         140.7942  144.5328  158.9584 C.ar    1  UNL1        0.0044
     12 C         140.7448  145.5597  157.8661 C.ar    1  UNL1        0.0002
     13 C         139.8191  145.3714  156.7010 C.ar    1  UNL1        0.0274
     14 C         139.7697  146.3983  155.6087 C.3     1  UNL1        0.0952
     15 N         138.4633  147.0336  155.2350 N.3     1  UNL1       -0.3174
     16 H         137.8445  146.3285  154.8345 H       1  UNL1        0.1192
     17 H         138.6274  147.7708  154.5495 H       1  UNL1        0.1192
     18 C         138.4957  143.2573  154.2319 C.3     1  UNL1        0.2525
     19 O         138.0169  143.9680  155.4630 O.3     1  UNL1       -0.4717
     20 N         142.5260  138.3130  157.6303 N.ar    1  UNL1       -0.2307
     21 C         142.1544  136.9277  157.1914 C.ar    1  UNL1        0.1131
     22 C         143.1469  136.4876  156.1563 C.ar    1  UNL1        0.1005
     23 N         144.1318  137.6010  155.9555 N.ar    1  UNL1       -0.1332
     24 N         143.7481  138.7293  156.8666 N.ar    1  UNL1       -0.0641
     25 C         143.1533  135.1662  155.4465 C.3     1  UNL1        0.0437
     26 C         143.6669  133.7627  155.3189 C.3     1  UNL1        0.0064
     27 C         142.6507  134.2809  154.3448 C.3     1  UNL1        0.0064
     28 C         140.2406  139.8559  162.1334 C.2     1  UNL1        0.2407
     29 O         138.9698  139.1358  162.4750 O.2     1  UNL1       -0.2733
     30 N         140.9998  140.5851  163.2019 N.am    1  UNL1       -0.3023
     31 H         141.8339  141.0577  162.9778 H       1  UNL1        0.1495
     32 C         140.4884  140.5943  164.6119 C.3     1  UNL1        0.0981
     33 C         140.9378  141.6612  165.5659 C.3     1  UNL1        0.0641
     34 C         140.5199  141.6046  167.0053 C.ar    1  UNL1       -0.0168
     35 C         140.7150  142.7998  167.8904 C.ar    1  UNL1       -0.0039
     36 C         140.2971  142.7433  169.3300 C.ar    1  UNL1       -0.0003
     37 C         139.6842  141.4915  169.8844 C.ar    1  UNL1       -0.0000
     38 C         139.4891  140.2963  168.9992 C.ar    1  UNL1       -0.0003
     39 C         139.9070  140.3528  167.5598 C.ar    1  UNL1       -0.0039
     40 C         141.8050  142.7846  165.0802 C.ar    1  UNL1       -0.0168
     41 C         143.2897  142.7288  165.2861 C.ar    1  UNL1       -0.0039
     42 C         144.1570  143.8523  164.8005 C.ar    1  UNL1       -0.0003
     43 C         143.5396  145.0313  164.1089 C.ar    1  UNL1       -0.0000
     44 C         142.0548  145.0872  163.9029 C.ar    1  UNL1       -0.0003
     45 C         141.1876  143.9638  164.3886 C.ar    1  UNL1       -0.0039
@<TRIPOS>BOND
     1    18    19    1
     2    19     8    1
     3     8     9   ar
     4     9    10   ar
     5    10     1    1
     6     1     2    2
     7     1     3   am
     8     3     4    1
     9     4     5    1
    10     5    20    1
    11    20    21   ar
    12    21    22   ar
    13    22    25    1
    14    25    26    1
    15    26    27    1
    16    22    23   ar
    17    23    24   ar
    18     5     6    1
    19     6     7    1
    20     7    28    1
    21    28    29    2
    22    28    30   am
    23    30    32    1
    24    32    33    1
    25    33    34    1
    26    34    35   ar
    27    35    36   ar
    28    36    37   ar
    29    37    38   ar
    30    38    39   ar
    31    33    40    1
    32    40    41   ar
    33    41    42   ar
    34    42    43   ar
    35    43    44   ar
    36    44    45   ar
    37    10    11   ar
    38    11    12   ar
    39    12    13   ar
    40    13    14    1
    41    14    15    1
    42    13     8   ar
    43     7     3    1
    44    39    34   ar
    45    45    40   ar
    46    24    20   ar
    47    27    25    1
    48    30    31    1
    49    15    16    1
    50    15    17    1
@<TRIPOS>MOLECULE
*****
 45 50 0 0 0
SMALL
GASTEIGER

@<TRIPOS>ATOM
      1 C         141.3454  140.6071  159.9490 C.2     1  UNL1        0.2495
      2 O         141.7939  140.2833  161.3433 O.2     1  UNL1       -0.2699
      3 N         140.9495  142.0101  159.5953 N.am    1  UNL1       -0.2674
      4 C         140.4828  142.4820  158.2502 C.3     1  UNL1        0.1185
      5 C         140.1956  143.9510  158.3483 C.3     1  UNL1        0.1288
      6 C         140.4849  144.3870  159.7541 C.3     1  UNL1        0.0554
      7 C         140.9508  143.1874  160.5248 C.3     1  UNL1        0.1540
      8 C         142.5002  137.9995  157.1891 C.ar    1  UNL1        0.1361
      9 C         142.5528  139.0785  158.2298 C.ar    1  UNL1        0.0411
     10 C         141.2928  139.5281  158.9083 C.ar    1  UNL1        0.0566
     11 C         139.9803  138.8986  158.5462 C.ar    1  UNL1        0.0044
     12 C         139.9277  137.8196  157.5056 C.ar    1  UNL1        0.0002
     13 C         141.1877  137.3700  156.8271 C.ar    1  UNL1        0.0274
     14 C         141.1351  136.2910  155.7865 C.3     1  UNL1        0.0952
     15 N         141.9878  135.0657  155.9329 N.3     1  UNL1       -0.3174
     16 H         142.9715  135.3253  155.8599 H       1  UNL1        0.1192
     17 H         141.7562  134.4002  155.1953 H       1  UNL1        0.1192
     18 C         144.2710  138.2908  155.3105 C.3     1  UNL1        0.2525
     19 O         143.7601  137.5499  156.5106 O.3     1  UNL1       -0.4717
     20 N         139.7053  144.8297  157.2359 N.ar    1  UNL1       -0.2307
     21 C         139.9089  146.3119  157.1280 C.ar    1  UNL1        0.1131
     22 C         139.2547  146.7787  155.8615 C.ar    1  UNL1        0.1005
     23 N         138.6467  145.5850  155.1866 N.ar    1  UNL1       -0.1332
     24 N         138.9252  144.3804  156.0360 N.ar    1  UNL1       -0.0641
     25 C         139.2153  148.1912  155.3582 C.3     1  UNL1        0.0437
     26 C         139.6480  149.2290  154.3654 C.3     1  UNL1        0.0064
     27 C         138.7146  149.5999  155.4795 C.3     1  UNL1        0.0064
     28 C         141.3483  143.1685  161.9710 C.2     1  UNL1        0.2407
     29 O         142.6344  143.8080  162.4038 O.2     1  UNL1       -0.2733
     30 N         140.4598  142.5103  162.9846 N.am    1  UNL1       -0.3023
     31 H         139.6157  142.0907  162.7006 H       1  UNL1        0.1495
     32 C         140.8573  142.4915  164.4308 C.3     1  UNL1        0.0981
     33 C         140.5655  141.2851  165.2732 C.3     1  UNL1        0.0641
     34 C         140.5040  139.9262  164.6414 C.ar    1  UNL1       -0.0168
     35 C         141.7287  139.0610  164.6023 C.ar    1  UNL1       -0.0039
     36 C         141.6672  137.7020  163.9704 C.ar    1  UNL1       -0.0003
     37 C         140.3810  137.2081  163.3775 C.ar    1  UNL1       -0.0000
     38 C         139.1561  138.0733  163.4166 C.ar    1  UNL1       -0.0003
     39 C         139.2176  139.4322  164.0484 C.ar    1  UNL1       -0.0039
     40 C         140.3352  141.4379  166.7475 C.ar    1  UNL1       -0.0168
     41 C         140.6495  142.7388  167.4249 C.ar    1  UNL1       -0.0039
     42 C         140.4192  142.8916  168.8993 C.ar    1  UNL1       -0.0003
     43 C         139.8747  141.7435  169.6962 C.ar    1  UNL1       -0.0000
     44 C         139.5604  140.4424  169.0189 C.ar    1  UNL1       -0.0003
     45 C         139.7907  140.2897  167.5446 C.ar    1  UNL1       -0.0039
@<TRIPOS>BOND
     1    18    19    1
     2    19     8    1
     3     8     9   ar
     4     9    10   ar
     5    10     1    1
     6     1     2    2
     7     1     3   am
     8     3     4    1
     9     4     5    1
    10     5    20    1
    11    20    21   ar
    12    21    22   ar
    13    22    25    1
    14    25    26    1
    15    26    27    1
    16    22    23   ar
    17    23    24   ar
    18     5     6    1
    19     6     7    1
    20     7    28    1
    21    28    29    2
    22    28    30   am
    23    30    32    1
    24    32    33    1
    25    33    34    1
    26    34    35   ar
    27    35    36   ar
    28    36    37   ar
    29    37    38   ar
    30    38    39   ar
    31    33    40    1
    32    40    41   ar
    33    41    42   ar
    34    42    43   ar
    35    43    44   ar
    36    44    45   ar
    37    10    11   ar
    38    11    12   ar
    39    12    13   ar
    40    13    14    1
    41    14    15    1
    42    13     8   ar
    43     7     3    1
    44    39    34   ar
    45    45    40   ar
    46    24    20   ar
    47    27    25    1
    48    30    31    1
    49    15    16    1
    50    15    17    1
