@<TRIPOS>MOLECULE
*****
 45 49 0 0 0
SMALL
GASTEIGER

@<TRIPOS>ATOM
      1 C         144.2960  141.8527  163.7759 C.ar    1  UNL1        0.0846
      2 C         144.3040  140.3538  163.7185 C.ar    1  UNL1        0.0174
      3 C         144.1122  139.6525  162.4064 C.ar    1  UNL1       -0.0031
      4 C         143.9123  140.4501  161.1518 C.ar    1  UNL1       -0.0218
      5 C         143.9043  141.9489  161.2094 C.ar    1  UNL1        0.0091
      6 C         144.0961  142.6503  162.5213 C.ar    1  UNL1        0.1477
      7 C         143.7225  142.9270  160.0866 C.3     1  UNL1        0.0292
      8 C         143.5038  142.6476  158.6291 C.3     1  UNL1        0.0062
      9 C         143.4130  141.3213  157.9345 C.3     1  UNL1        0.0166
     10 C         143.5183  139.9467  158.5256 C.3     1  UNL1        0.0619
     11 C         143.7406  139.5590  159.9575 C.3     1  UNL1        0.0421
     12 N         143.3836  138.8096  157.5569 N.3     1  UNL1       -0.2713
     13 C         143.8750  138.9624  156.1479 C.3     1  UNL1        0.0896
     14 C         143.7403  137.8251  155.1790 C.3     1  UNL1        0.0897
     15 N         143.1142  136.5351  155.6192 N.3     1  UNL1       -0.2682
     16 C         142.6227  136.3822  157.0282 C.3     1  UNL1        0.0897
     17 C         142.7575  137.5195  157.9970 C.3     1  UNL1        0.0896
     18 C         142.9795  135.3979  154.6504 C.3     1  UNL1        0.1043
     19 C         142.6604  134.0202  155.1507 C.3     1  UNL1        0.1544
     20 O         141.2485  133.6598  155.5064 O.3     1  UNL1       -0.3805
     21 H         140.9654  134.1808  156.2740 H       1  UNL1        0.2105
     22 N         144.4878  142.5539  165.0879 N.pl3   1  UNL1       -0.2801
     23 H         145.3049  143.0783  165.2510 H       1  UNL1        0.1552
     24 C         140.9545  142.0934  166.8356 C.ar    1  UNL1        0.1472
     25 N         142.0078  142.1911  165.7720 N.ar    1  UNL1       -0.1976
     26 C         143.4346  142.4562  166.1515 C.ar    1  UNL1        0.2220
     27 N         143.8081  142.6235  167.5947 N.ar    1  UNL1       -0.2110
     28 C         142.7550  142.5258  168.6582 C.ar    1  UNL1        0.1160
     29 C         141.3282  142.2607  168.2787 C.ar    1  UNL1        0.1085
     30 CL        140.2749  142.1630  169.3423 Cl      1  UNL1       -0.0777
     31 N         139.5278  141.8283  166.4561 N.pl3   1  UNL1       -0.2970
     32 H         138.9635  141.2601  167.0287 H       1  UNL1        0.1536
     33 C         138.4057  141.5406  164.1305 C.ar    1  UNL1        0.0668
     34 C         137.8387  142.1414  162.8784 C.ar    1  UNL1        0.0058
     35 C         137.8269  143.6307  162.6999 C.ar    1  UNL1        0.0002
     36 C         138.3820  144.5193  163.7733 C.ar    1  UNL1        0.0013
     37 C         138.9490  143.9185  165.0254 C.ar    1  UNL1        0.0148
     38 C         138.9608  142.4291  165.2040 C.ar    1  UNL1        0.0537
     39 C         138.8592  137.6745  163.3574 C.3     1  UNL1        0.1109
     40 N         138.8473  139.1638  163.1788 N.am    1  UNL1       -0.2991
     41 C         138.4175  140.0514  164.3091 C.2     1  UNL1        0.2471
     42 O         137.9994  139.4496  165.6179 O.2     1  UNL1       -0.2701
     43 H         139.1217  139.5588  162.3198 H       1  UNL1        0.1498
     44 O         144.0881  144.1491  162.5787 O.3     1  UNL1       -0.4705
     45 C         142.8780  144.8736  163.0891 C.3     1  UNL1        0.2525
@<TRIPOS>BOND
     1    39    40    1
     2    40    41   am
     3    41    42    2
     4    41    33    1
     5    33    34   ar
     6    34    35   ar
     7    35    36   ar
     8    36    37   ar
     9    37    38   ar
    10    38    31    1
    11    31    24    1
    12    24    25   ar
    13    25    26   ar
    14    26    22    1
    15    22     1    1
    16     1     2   ar
    17     2     3   ar
    18     3     4   ar
    19     4     5   ar
    20     5     6   ar
    21     6    44    1
    22    44    45    1
    23     5     7    1
    24     7     8    1
    25     8     9    1
    26     9    10    1
    27    10    12    1
    28    12    13    1
    29    13    14    1
    30    14    15    1
    31    15    18    1
    32    18    19    1
    33    19    20    1
    34    15    16    1
    35    16    17    1
    36    10    11    1
    37    26    27   ar
    38    27    28   ar
    39    28    29   ar
    40    29    30    1
    41    38    33   ar
    42    29    24   ar
    43     6     1   ar
    44    17    12    1
    45    11     4    1
    46    40    43    1
    47    31    32    1
    48    22    23    1
    49    20    21    1
@<TRIPOS>MOLECULE
*****
 45 49 0 0 0
SMALL
GASTEIGER

@<TRIPOS>ATOM
      1 C         140.0383  138.6822  159.7372 C.ar    1  UNL1        0.0846
      2 C         141.1503  138.3661  160.6930 C.ar    1  UNL1        0.0174
      3 C         141.1201  138.9177  162.0876 C.ar    1  UNL1       -0.0031
      4 C         139.9778  139.7854  162.5263 C.ar    1  UNL1       -0.0218
      5 C         138.8659  140.1014  161.5706 C.ar    1  UNL1        0.0091
      6 C         138.8960  139.5498  160.1760 C.ar    1  UNL1        0.1477
      7 C         137.6432  140.9390  161.8022 C.3     1  UNL1        0.0292
      8 C         137.2307  141.6676  163.0469 C.3     1  UNL1        0.0062
      9 C         137.9389  141.7383  164.3672 C.3     1  UNL1        0.0166
     10 C         139.2345  141.0980  164.7691 C.3     1  UNL1        0.0619
     11 C         140.1419  140.2289  163.9499 C.3     1  UNL1        0.0421
     12 N         139.6818  141.3618  166.1763 N.3     1  UNL1       -0.2713
     13 C         140.2830  142.6882  166.5360 C.3     1  UNL1        0.0896
     14 C         140.7304  142.9519  167.9434 C.3     1  UNL1        0.0897
     15 N         140.5765  141.8894  168.9909 N.3     1  UNL1       -0.2682
     16 C         139.9754  140.5630  168.6311 C.3     1  UNL1        0.0897
     17 C         139.5280  140.2992  167.2238 C.3     1  UNL1        0.0896
     18 C         141.0239  142.1531  170.3980 C.3     1  UNL1        0.1043
     19 C         141.5214  141.0239  171.2510 C.3     1  UNL1        0.1544
     20 O         140.5919  140.3441  172.2121 O.3     1  UNL1       -0.3805
     21 H         140.3309  140.9692  172.9064 H       1  UNL1        0.2105
     22 N         140.0686  138.1306  158.3426 N.pl3   1  UNL1       -0.2801
     23 H         139.2873  137.6486  157.9868 H       1  UNL1        0.1552
     24 C         143.2290  137.2988  156.0909 C.ar    1  UNL1        0.1472
     25 N         142.0083  137.1160  156.9433 N.ar    1  UNL1       -0.1976
     26 C         141.2892  138.3134  157.4902 C.ar    1  UNL1        0.2220
     27 N         141.7908  139.6937  157.1845 N.ar    1  UNL1       -0.2110
     28 C         143.0113  139.8766  156.3322 C.ar    1  UNL1        0.1160
     29 C         143.7305  138.6791  155.7853 C.ar    1  UNL1        0.1085
     30 CL        144.9511  138.8620  154.9328 Cl      1  UNL1       -0.0777
     31 N         143.9480  136.1014  155.5440 N.pl3   1  UNL1       -0.2970
     32 H         144.9291  136.0459  155.6051 H       1  UNL1        0.1536
     33 C         143.1481  133.6295  155.5389 C.ar    1  UNL1        0.0668
     34 C         142.3724  132.5164  154.8989 C.ar    1  UNL1        0.0058
     35 C         141.6208  132.7624  153.6243 C.ar    1  UNL1        0.0002
     36 C         141.6449  134.1212  152.9895 C.ar    1  UNL1        0.0013
     37 C         142.4207  135.2342  153.6294 C.ar    1  UNL1        0.0148
     38 C         143.1723  134.9884  154.9041 C.ar    1  UNL1        0.0537
     39 C         145.7584  132.1262  158.1228 C.3     1  UNL1        0.1109
     40 N         145.0068  132.3721  156.8482 N.am    1  UNL1       -0.2991
     41 C         143.8997  133.3836  156.8134 C.2     1  UNL1        0.2471
     42 O         143.5441  134.1492  158.0534 O.2     1  UNL1       -0.2701
     43 H         145.2401  131.8696  156.0344 H       1  UNL1        0.1498
     44 O         137.7840  139.8659  159.2202 O.3     1  UNL1       -0.4705
     45 C         137.9874  140.8930  158.1462 C.3     1  UNL1        0.2525
@<TRIPOS>BOND
     1    39    40    1
     2    40    41   am
     3    41    42    2
     4    41    33    1
     5    33    34   ar
     6    34    35   ar
     7    35    36   ar
     8    36    37   ar
     9    37    38   ar
    10    38    31    1
    11    31    24    1
    12    24    25   ar
    13    25    26   ar
    14    26    22    1
    15    22     1    1
    16     1     2   ar
    17     2     3   ar
    18     3     4   ar
    19     4     5   ar
    20     5     6   ar
    21     6    44    1
    22    44    45    1
    23     5     7    1
    24     7     8    1
    25     8     9    1
    26     9    10    1
    27    10    12    1
    28    12    13    1
    29    13    14    1
    30    14    15    1
    31    15    18    1
    32    18    19    1
    33    19    20    1
    34    15    16    1
    35    16    17    1
    36    10    11    1
    37    26    27   ar
    38    27    28   ar
    39    28    29   ar
    40    29    30    1
    41    38    33   ar
    42    29    24   ar
    43     6     1   ar
    44    17    12    1
    45    11     4    1
    46    40    43    1
    47    31    32    1
    48    22    23    1
    49    20    21    1
@<TRIPOS>MOLECULE
*****
 45 49 0 0 0
SMALL
GASTEIGER

@<TRIPOS>ATOM
      1 C         139.6617  140.1228  160.8979 C.ar    1  UNL1        0.0846
      2 C         138.2374  140.0355  161.3603 C.ar    1  UNL1        0.0174
      3 C         137.9322  139.8341  162.8152 C.ar    1  UNL1       -0.0031
      4 C         139.0514  139.7201  163.8074 C.ar    1  UNL1       -0.0218
      5 C         140.4755  139.8075  163.3449 C.ar    1  UNL1        0.0091
      6 C         140.7808  140.0088  161.8902 C.ar    1  UNL1        0.1477
      7 C         141.7310  139.7196  164.1612 C.3     1  UNL1        0.0292
      8 C         141.8722  139.5227  165.6415 C.3     1  UNL1        0.0062
      9 C         140.7930  139.3650  166.6711 C.3     1  UNL1        0.0166
     10 C         139.3058  139.3653  166.4748 C.3     1  UNL1        0.0619
     11 C         138.5308  139.5234  165.2004 C.3     1  UNL1        0.0421
     12 N         138.4853  139.1835  167.7172 N.3     1  UNL1       -0.2713
     13 C         137.3122  138.2487  167.7112 C.3     1  UNL1        0.0896
     14 C         136.4917  138.0670  168.9538 C.3     1  UNL1        0.0897
     15 N         136.8442  138.8199  170.2022 N.3     1  UNL1       -0.2682
     16 C         138.0174  139.7547  170.2083 C.3     1  UNL1        0.0897
     17 C         138.8379  139.9365  168.9657 C.3     1  UNL1        0.0896
     18 C         136.0238  138.6382  171.4446 C.3     1  UNL1        0.1043
     19 C         136.0856  137.3446  172.2017 C.3     1  UNL1        0.1544
     20 O         137.3526  136.5420  172.2129 O.3     1  UNL1       -0.3805
     21 H         137.5364  136.2154  171.3182 H       1  UNL1        0.2105
     22 N         139.9668  140.3241  159.4431 N.pl3   1  UNL1       -0.2801
     23 H         139.8358  139.5852  158.8058 H       1  UNL1        0.1552
     24 C         141.1630  144.1082  159.4445 C.ar    1  UNL1        0.1472
     25 N         140.6584  142.7810  159.9283 N.ar    1  UNL1       -0.1976
     26 C         140.4714  141.6513  158.9594 C.ar    1  UNL1        0.2220
     27 N         140.7889  141.8488  157.5067 N.ar    1  UNL1       -0.2110
     28 C         141.2934  143.1759  157.0229 C.ar    1  UNL1        0.1160
     29 C         141.4805  144.3057  157.9918 C.ar    1  UNL1        0.1085
     30 CL        141.9851  145.6328  157.5081 Cl      1  UNL1       -0.0777
     31 N         141.3501  145.2379  160.4135 N.pl3   1  UNL1       -0.2970
     32 H         141.7530  146.0838  160.1115 H       1  UNL1        0.1536
     33 C         141.8794  144.5173  162.8529 C.ar    1  UNL1        0.0668
     34 C         141.4525  144.3580  164.2820 C.ar    1  UNL1        0.0058
     35 C         140.0693  144.7599  164.7008 C.ar    1  UNL1        0.0002
     36 C         139.1130  145.3211  163.6906 C.ar    1  UNL1        0.0013
     37 C         139.5400  145.4804  162.2615 C.ar    1  UNL1        0.0148
     38 C         140.9231  145.0786  161.8426 C.ar    1  UNL1        0.0537
     39 C         144.8793  142.3708  161.3890 C.3     1  UNL1        0.1109
     40 N         143.4961  142.7727  161.8078 N.am    1  UNL1       -0.2991
     41 C         143.2625  144.1155  162.4341 C.2     1  UNL1        0.2471
     42 O         144.4121  145.0564  162.6416 O.2     1  UNL1       -0.2701
     43 H         142.7416  142.1551  161.6716 H       1  UNL1        0.1498
     44 O         142.2050  140.0961  161.4277 O.3     1  UNL1       -0.4705
     45 C         142.8739  138.8948  160.8283 C.3     1  UNL1        0.2525
@<TRIPOS>BOND
     1    39    40    1
     2    40    41   am
     3    41    42    2
     4    41    33    1
     5    33    34   ar
     6    34    35   ar
     7    35    36   ar
     8    36    37   ar
     9    37    38   ar
    10    38    31    1
    11    31    24    1
    12    24    25   ar
    13    25    26   ar
    14    26    22    1
    15    22     1    1
    16     1     2   ar
    17     2     3   ar
    18     3     4   ar
    19     4     5   ar
    20     5     6   ar
    21     6    44    1
    22    44    45    1
    23     5     7    1
    24     7     8    1
    25     8     9    1
    26     9    10    1
    27    10    12    1
    28    12    13    1
    29    13    14    1
    30    14    15    1
    31    15    18    1
    32    18    19    1
    33    19    20    1
    34    15    16    1
    35    16    17    1
    36    10    11    1
    37    26    27   ar
    38    27    28   ar
    39    28    29   ar
    40    29    30    1
    41    38    33   ar
    42    29    24   ar
    43     6     1   ar
    44    17    12    1
    45    11     4    1
    46    40    43    1
    47    31    32    1
    48    22    23    1
    49    20    21    1
@<TRIPOS>MOLECULE
*****
 45 49 0 0 0
SMALL
GASTEIGER

@<TRIPOS>ATOM
      1 C         141.1725  142.4705  158.5570 C.ar    1  UNL1        0.0846
      2 C         141.9780  143.7186  158.7651 C.ar    1  UNL1        0.0174
      3 C         141.5908  144.9868  158.0639 C.ar    1  UNL1       -0.0031
      4 C         140.3980  145.0069  157.1545 C.ar    1  UNL1       -0.0218
      5 C         139.5925  143.7588  156.9465 C.ar    1  UNL1        0.0091
      6 C         139.9797  142.4906  157.6477 C.ar    1  UNL1        0.1477
      7 C         138.3770  143.5621  156.0897 C.3     1  UNL1        0.0292
      8 C         137.6670  144.5650  155.2294 C.3     1  UNL1        0.0062
      9 C         137.9970  146.0121  155.0135 C.3     1  UNL1        0.0166
     10 C         139.1185  146.8140  155.6044 C.3     1  UNL1        0.0619
     11 C         140.1871  146.3666  156.5573 C.3     1  UNL1        0.0421
     12 N         139.1796  148.2535  155.1874 N.3     1  UNL1       -0.2713
     13 C         139.8559  148.6345  153.9038 C.3     1  UNL1        0.0896
     14 C         139.9169  150.0741  153.4867 C.3     1  UNL1        0.0897
     15 N         139.3017  151.1327  154.3532 N.3     1  UNL1       -0.2682
     16 C         138.6253  150.7518  155.6368 C.3     1  UNL1        0.0897
     17 C         138.5643  149.3121  156.0538 C.3     1  UNL1        0.0896
     18 C         139.3627  152.5722  153.9361 C.3     1  UNL1        0.1043
     19 C         138.1288  153.4232  153.9951 C.3     1  UNL1        0.1544
     20 O         137.1663  153.4294  152.8447 O.3     1  UNL1       -0.3805
     21 H         137.5950  153.8188  152.0666 H       1  UNL1        0.2105
     22 N         141.5597  141.2023  159.2583 N.pl3   1  UNL1       -0.2801
     23 H         141.3486  140.3308  158.8519 H       1  UNL1        0.1552
     24 C         142.1879  141.4133  163.1713 C.ar    1  UNL1        0.1472
     25 N         141.4789  141.3536  161.8508 N.ar    1  UNL1       -0.1976
     26 C         142.2688  141.2620  160.5788 C.ar    1  UNL1        0.2220
     27 N         143.7677  141.2301  160.6275 N.ar    1  UNL1       -0.2110
     28 C         144.4767  141.2898  161.9479 C.ar    1  UNL1        0.1160
     29 C         143.6868  141.3814  163.2199 C.ar    1  UNL1        0.1085
     30 CL        144.3958  141.4411  164.5404 Cl      1  UNL1       -0.0777
     31 N         141.3980  141.5049  164.4431 N.pl3   1  UNL1       -0.2970
     32 H         141.6648  140.9734  165.2277 H       1  UNL1        0.1536
     33 C         138.8210  141.8326  164.3963 C.ar    1  UNL1        0.0668
     34 C         137.6245  142.7341  164.4727 C.ar    1  UNL1        0.0058
     35 C         137.8085  144.2093  164.6724 C.ar    1  UNL1        0.0002
     36 C         139.1889  144.7831  164.7957 C.ar    1  UNL1        0.0013
     37 C         140.3854  143.8817  164.7192 C.ar    1  UNL1        0.0148
     38 C         140.2015  142.4064  164.5195 C.ar    1  UNL1        0.0537
     39 C         138.7353  138.2655  162.6590 C.3     1  UNL1        0.1109
     40 N         138.9192  139.7407  162.8587 N.am    1  UNL1       -0.2991
     41 C         138.6371  140.3574  164.1966 C.2     1  UNL1        0.2471
     42 O         138.1709  139.4989  165.3348 O.2     1  UNL1       -0.2701
     43 H         139.2252  140.3042  162.1116 H       1  UNL1        0.1498
     44 O         139.1741  141.2425  157.4396 O.3     1  UNL1       -0.4705
     45 C         138.1412  140.8394  158.4497 C.3     1  UNL1        0.2525
@<TRIPOS>BOND
     1    39    40    1
     2    40    41   am
     3    41    42    2
     4    41    33    1
     5    33    34   ar
     6    34    35   ar
     7    35    36   ar
     8    36    37   ar
     9    37    38   ar
    10    38    31    1
    11    31    24    1
    12    24    25   ar
    13    25    26   ar
    14    26    22    1
    15    22     1    1
    16     1     2   ar
    17     2     3   ar
    18     3     4   ar
    19     4     5   ar
    20     5     6   ar
    21     6    44    1
    22    44    45    1
    23     5     7    1
    24     7     8    1
    25     8     9    1
    26     9    10    1
    27    10    12    1
    28    12    13    1
    29    13    14    1
    30    14    15    1
    31    15    18    1
    32    18    19    1
    33    19    20    1
    34    15    16    1
    35    16    17    1
    36    10    11    1
    37    26    27   ar
    38    27    28   ar
    39    28    29   ar
    40    29    30    1
    41    38    33   ar
    42    29    24   ar
    43     6     1   ar
    44    17    12    1
    45    11     4    1
    46    40    43    1
    47    31    32    1
    48    22    23    1
    49    20    21    1
@<TRIPOS>MOLECULE
*****
 45 49 0 0 0
SMALL
GASTEIGER

@<TRIPOS>ATOM
      1 C         143.2557  142.6852  164.6147 C.ar    1  UNL1        0.0846
      2 C         142.4651  143.9317  164.3478 C.ar    1  UNL1        0.0174
      3 C         142.1811  144.3517  162.9360 C.ar    1  UNL1       -0.0031
      4 C         142.6878  143.5253  161.7913 C.ar    1  UNL1       -0.0218
      5 C         143.4783  142.2789  162.0583 C.ar    1  UNL1        0.0091
      6 C         143.7624  141.8588  163.4700 C.ar    1  UNL1        0.1477
      7 C         144.0719  141.3183  161.0708 C.3     1  UNL1        0.0292
      8 C         144.0212  141.3670  159.5724 C.3     1  UNL1        0.0062
      9 C         143.3647  142.3881  158.6916 C.3     1  UNL1        0.0166
     10 C         142.5966  143.6130  159.0914 C.3     1  UNL1        0.0619
     11 C         142.2953  144.1190  160.4709 C.3     1  UNL1        0.0421
     12 N         142.0586  144.4412  157.9624 N.3     1  UNL1       -0.2713
     13 C         142.5663  144.2275  156.5672 C.3     1  UNL1        0.0896
     14 C         142.0283  145.0558  155.4382 C.3     1  UNL1        0.0897
     15 N         140.9826  146.0977  155.7044 N.3     1  UNL1       -0.2682
     16 C         140.4748  146.3114  157.0996 C.3     1  UNL1        0.0897
     17 C         141.0129  145.4831  158.2286 C.3     1  UNL1        0.0896
     18 C         140.4446  146.9259  154.5755 C.3     1  UNL1        0.1043
     19 C         139.0966  147.5728  154.6959 C.3     1  UNL1        0.1544
     20 O         137.8659  146.7244  154.8197 O.3     1  UNL1       -0.3805
     21 H         137.7335  146.2251  153.9987 H       1  UNL1        0.2105
     22 N         143.5397  142.2652  166.0264 N.pl3   1  UNL1       -0.2801
     23 H         144.4558  142.3227  166.3823 H       1  UNL1        0.1552
     24 C         140.0575  140.7224  167.1421 C.ar    1  UNL1        0.1472
     25 N         141.1694  141.2300  166.2727 N.ar    1  UNL1       -0.1976
     26 C         142.4277  141.7576  166.8959 C.ar    1  UNL1        0.2220
     27 N         142.5740  141.7776  168.3887 N.ar    1  UNL1       -0.2110
     28 C         141.4622  141.2700  169.2581 C.ar    1  UNL1        0.1160
     29 C         140.2039  140.7424  168.6349 C.ar    1  UNL1        0.1085
     30 CL        139.0919  140.2348  169.5043 Cl      1  UNL1       -0.0777
     31 N         138.7993  140.1948  166.5188 N.pl3   1  UNL1       -0.2970
     32 H         137.9290  140.3660  166.9461 H       1  UNL1        0.1536
     33 C         138.5344  140.0634  163.9376 C.ar    1  UNL1        0.0668
     34 C         138.6022  139.2751  162.6632 C.ar    1  UNL1        0.0058
     35 C         139.0027  137.8299  162.6958 C.ar    1  UNL1        0.0002
     36 C         139.3354  137.1730  164.0025 C.ar    1  UNL1        0.0013
     37 C         139.2676  137.9613  165.2769 C.ar    1  UNL1        0.0148
     38 C         138.8671  139.4065  165.2445 C.ar    1  UNL1        0.0537
     39 C         138.6144  143.9906  164.5042 C.3     1  UNL1        0.1109
     40 N         139.0148  142.5453  164.5367 N.am    1  UNL1       -0.2991
     41 C         138.1339  141.5085  163.9051 C.2     1  UNL1        0.2471
     42 O         136.8524  141.9169  163.2410 O.2     1  UNL1       -0.2701
     43 H         139.8559  142.2773  164.9726 H       1  UNL1        0.1498
     44 O         144.5530  140.6124  163.7369 O.3     1  UNL1       -0.4705
     45 C         143.8481  139.3441  164.1170 C.3     1  UNL1        0.2525
@<TRIPOS>BOND
     1    39    40    1
     2    40    41   am
     3    41    42    2
     4    41    33    1
     5    33    34   ar
     6    34    35   ar
     7    35    36   ar
     8    36    37   ar
     9    37    38   ar
    10    38    31    1
    11    31    24    1
    12    24    25   ar
    13    25    26   ar
    14    26    22    1
    15    22     1    1
    16     1     2   ar
    17     2     3   ar
    18     3     4   ar
    19     4     5   ar
    20     5     6   ar
    21     6    44    1
    22    44    45    1
    23     5     7    1
    24     7     8    1
    25     8     9    1
    26     9    10    1
    27    10    12    1
    28    12    13    1
    29    13    14    1
    30    14    15    1
    31    15    18    1
    32    18    19    1
    33    19    20    1
    34    15    16    1
    35    16    17    1
    36    10    11    1
    37    26    27   ar
    38    27    28   ar
    39    28    29   ar
    40    29    30    1
    41    38    33   ar
    42    29    24   ar
    43     6     1   ar
    44    17    12    1
    45    11     4    1
    46    40    43    1
    47    31    32    1
    48    22    23    1
    49    20    21    1
@<TRIPOS>MOLECULE
*****
 45 49 0 0 0
SMALL
GASTEIGER

@<TRIPOS>ATOM
      1 C         139.3470  141.6596  159.4457 C.ar    1  UNL1        0.0846
      2 C         138.6627  140.3403  159.6486 C.ar    1  UNL1        0.0174
      3 C         139.2496  139.0923  159.0584 C.ar    1  UNL1       -0.0031
      4 C         140.5209  139.1638  158.2653 C.ar    1  UNL1       -0.0218
      5 C         141.2050  140.4831  158.0625 C.ar    1  UNL1        0.0091
      6 C         140.6182  141.7310  158.6526 C.ar    1  UNL1        0.1477
      7 C         142.4705  140.7747  157.3115 C.3     1  UNL1        0.0292
      8 C         143.3641  139.8188  156.5781 C.3     1  UNL1        0.0062
      9 C         143.2130  138.3356  156.4144 C.3     1  UNL1        0.0166
     10 C         142.1311  137.4415  156.9437 C.3     1  UNL1        0.0619
     11 C         140.9329  137.8102  157.7675 C.3     1  UNL1        0.0421
     12 N         142.2650  135.9866  156.6045 N.3     1  UNL1       -0.2713
     13 C         143.2674  135.1369  157.3279 C.3     1  UNL1        0.0896
     14 C         143.4012  133.6819  156.9885 C.3     1  UNL1        0.0897
     15 N         142.5327  133.0766  155.9259 N.3     1  UNL1       -0.2682
     16 C         141.5303  133.9263  155.2024 C.3     1  UNL1        0.0897
     17 C         141.3965  135.3813  155.5418 C.3     1  UNL1        0.0896
     18 C         142.6666  131.6216  155.5866 C.3     1  UNL1        0.1043
     19 C         143.8314  131.1461  154.7697 C.3     1  UNL1        0.1544
     20 O         145.1567  130.8980  155.4267 O.3     1  UNL1       -0.3805
     21 H         145.5185  131.7372  155.7520 H       1  UNL1        0.2105
     22 N         138.7600  142.9074  160.0358 N.pl3   1  UNL1       -0.2801
     23 H         138.2588  143.5335  159.4648 H       1  UNL1        0.1552
     24 C         139.8196  142.5098  163.8397 C.ar    1  UNL1        0.1472
     25 N         139.6429  142.2159  162.3795 N.ar    1  UNL1       -0.1976
     26 C         138.9367  143.2014  161.4961 C.ar    1  UNL1        0.2220
     27 N         138.4073  144.4808  162.0732 N.ar    1  UNL1       -0.2110
     28 C         138.5839  144.7747  163.5333 C.ar    1  UNL1        0.1160
     29 C         139.2901  143.7893  164.4167 C.ar    1  UNL1        0.1085
     30 CL        139.4668  144.0832  165.8770 Cl      1  UNL1       -0.0777
     31 N         140.5257  141.5244  164.7230 N.pl3   1  UNL1       -0.2970
     32 H         141.3898  141.7604  165.1315 H       1  UNL1        0.1536
     33 C         140.5090  138.9521  164.3580 C.ar    1  UNL1        0.0668
     34 C         139.8985  137.6069  164.6189 C.ar    1  UNL1        0.0058
     35 C         138.6943  137.4890  165.5055 C.ar    1  UNL1        0.0002
     36 C         138.1006  138.7161  166.1313 C.ar    1  UNL1        0.0013
     37 C         138.7111  140.0612  165.8705 C.ar    1  UNL1        0.0148
     38 C         139.9153  140.1793  164.9838 C.ar    1  UNL1        0.0537
     39 C         142.7753  139.7371  161.1962 C.3     1  UNL1        0.1109
     40 N         141.5712  139.6192  162.0829 N.am    1  UNL1       -0.2991
     41 C         141.7131  139.0700  163.4715 C.2     1  UNL1        0.2471
     42 O         143.0592  138.6387  163.9734 O.2     1  UNL1       -0.2701
     43 H         140.6877  139.9022  161.7534 H       1  UNL1        0.1498
     44 O         141.3025  143.0503  158.4497 O.3     1  UNL1       -0.4705
     45 C         142.1798  143.6138  159.5279 C.3     1  UNL1        0.2525
@<TRIPOS>BOND
     1    39    40    1
     2    40    41   am
     3    41    42    2
     4    41    33    1
     5    33    34   ar
     6    34    35   ar
     7    35    36   ar
     8    36    37   ar
     9    37    38   ar
    10    38    31    1
    11    31    24    1
    12    24    25   ar
    13    25    26   ar
    14    26    22    1
    15    22     1    1
    16     1     2   ar
    17     2     3   ar
    18     3     4   ar
    19     4     5   ar
    20     5     6   ar
    21     6    44    1
    22    44    45    1
    23     5     7    1
    24     7     8    1
    25     8     9    1
    26     9    10    1
    27    10    12    1
    28    12    13    1
    29    13    14    1
    30    14    15    1
    31    15    18    1
    32    18    19    1
    33    19    20    1
    34    15    16    1
    35    16    17    1
    36    10    11    1
    37    26    27   ar
    38    27    28   ar
    39    28    29   ar
    40    29    30    1
    41    38    33   ar
    42    29    24   ar
    43     6     1   ar
    44    17    12    1
    45    11     4    1
    46    40    43    1
    47    31    32    1
    48    22    23    1
    49    20    21    1
@<TRIPOS>MOLECULE
*****
 45 49 0 0 0
SMALL
GASTEIGER

@<TRIPOS>ATOM
      1 C         143.0897  141.3510  160.9138 C.ar    1  UNL1        0.0846
      2 C         143.3699  140.0118  161.5286 C.ar    1  UNL1        0.0174
      3 C         143.2652  138.7679  160.6968 C.ar    1  UNL1       -0.0031
      4 C         142.8802  138.8633  159.2501 C.ar    1  UNL1       -0.0218
      5 C         142.6000  140.2025  158.6354 C.ar    1  UNL1        0.0091
      6 C         142.7047  141.4463  159.4671 C.ar    1  UNL1        0.1477
      7 C         142.2042  140.5191  157.2236 C.3     1  UNL1        0.0292
      8 C         141.9910  139.5746  156.0779 C.3     1  UNL1        0.0062
      9 C         142.1208  138.0804  156.0611 C.3     1  UNL1        0.0166
     10 C         142.4959  137.1615  157.1857 C.3     1  UNL1        0.0619
     11 C         142.8339  137.5099  158.6050 C.3     1  UNL1        0.0421
     12 N         142.5387  135.7011  156.8463 N.3     1  UNL1       -0.2713
     13 C         143.4298  134.7766  157.6217 C.3     1  UNL1        0.0896
     14 C         143.4726  133.3161  157.2822 C.3     1  UNL1        0.0897
     15 N         142.6243  132.7801  156.1672 N.3     1  UNL1       -0.2682
     16 C         141.7332  133.7046  155.3918 C.3     1  UNL1        0.0897
     17 C         141.6904  135.1651  155.7313 C.3     1  UNL1        0.0896
     18 C         142.6671  131.3197  155.8277 C.3     1  UNL1        0.1043
     19 C         143.9058  130.5209  156.1065 C.3     1  UNL1        0.1544
     20 O         145.2056  130.9036  155.4632 O.3     1  UNL1       -0.3805
     21 H         145.1419  130.7749  154.5039 H       1  UNL1        0.2105
     22 N         143.1944  142.5948  161.7456 N.pl3   1  UNL1       -0.2801
     23 H         144.0438  143.0910  161.7844 H       1  UNL1        0.1552
     24 C         139.6068  142.6942  163.4396 C.ar    1  UNL1        0.1472
     25 N         140.7963  142.2065  162.6668 N.ar    1  UNL1       -0.1976
     26 C         142.0049  143.0825  162.5184 C.ar    1  UNL1        0.2220
     27 N         142.0239  144.4463  163.1429 N.ar    1  UNL1       -0.2110
     28 C         140.8345  144.9340  163.9157 C.ar    1  UNL1        0.1160
     29 C         139.6259  144.0580  164.0641 C.ar    1  UNL1        0.1085
     30 CL        138.4364  144.5457  164.8369 Cl      1  UNL1       -0.0777
     31 N         138.3983  141.8182  163.5880 N.pl3   1  UNL1       -0.2970
     32 H         137.5103  142.1570  163.3314 H       1  UNL1        0.1536
     33 C         138.5944  139.2588  163.1865 C.ar    1  UNL1        0.0668
     34 C         138.7390  137.8666  163.7258 C.ar    1  UNL1        0.0058
     35 C         138.8321  137.6416  165.2060 C.ar    1  UNL1        0.0002
     36 C         138.7806  138.8087  166.1468 C.ar    1  UNL1        0.0013
     37 C         138.6360  140.2009  165.6075 C.ar    1  UNL1        0.0148
     38 C         138.5429  140.4260  164.1273 C.ar    1  UNL1        0.0537
     39 C         139.2854  138.9288  159.2924 C.3     1  UNL1        0.1109
     40 N         139.3784  138.7038  160.7726 N.am    1  UNL1       -0.2991
     41 C         138.5013  139.4838  161.7065 C.2     1  UNL1        0.2471
     42 O         137.5311  140.4889  161.1602 O.2     1  UNL1       -0.2701
     43 H         140.0152  138.0441  161.1311 H       1  UNL1        0.1498
     44 O         142.4245  142.7856  158.8523 O.3     1  UNL1       -0.4705
     45 C         141.0633  143.4015  158.9845 C.3     1  UNL1        0.2525
@<TRIPOS>BOND
     1    39    40    1
     2    40    41   am
     3    41    42    2
     4    41    33    1
     5    33    34   ar
     6    34    35   ar
     7    35    36   ar
     8    36    37   ar
     9    37    38   ar
    10    38    31    1
    11    31    24    1
    12    24    25   ar
    13    25    26   ar
    14    26    22    1
    15    22     1    1
    16     1     2   ar
    17     2     3   ar
    18     3     4   ar
    19     4     5   ar
    20     5     6   ar
    21     6    44    1
    22    44    45    1
    23     5     7    1
    24     7     8    1
    25     8     9    1
    26     9    10    1
    27    10    12    1
    28    12    13    1
    29    13    14    1
    30    14    15    1
    31    15    18    1
    32    18    19    1
    33    19    20    1
    34    15    16    1
    35    16    17    1
    36    10    11    1
    37    26    27   ar
    38    27    28   ar
    39    28    29   ar
    40    29    30    1
    41    38    33   ar
    42    29    24   ar
    43     6     1   ar
    44    17    12    1
    45    11     4    1
    46    40    43    1
    47    31    32    1
    48    22    23    1
    49    20    21    1
@<TRIPOS>MOLECULE
*****
 45 49 0 0 0
SMALL
GASTEIGER

@<TRIPOS>ATOM
      1 C         143.5477  141.0092  161.6175 C.ar    1  UNL1        0.0846
      2 C         143.3504  139.6058  162.1088 C.ar    1  UNL1        0.0174
      3 C         143.1312  138.4917  161.1285 C.ar    1  UNL1       -0.0031
      4 C         143.1094  138.7813  159.6568 C.ar    1  UNL1       -0.0218
      5 C         143.3067  140.1846  159.1655 C.ar    1  UNL1        0.0091
      6 C         143.5258  141.2986  160.1458 C.ar    1  UNL1        0.1477
      7 C         143.3209  140.6876  157.7524 C.3     1  UNL1        0.0292
      8 C         143.1413  139.9111  156.4815 C.3     1  UNL1        0.0062
      9 C         142.9032  138.4402  156.3100 C.3     1  UNL1        0.0166
     10 C         142.7858  137.3822  157.3669 C.3     1  UNL1        0.0619
     11 C         142.8776  137.5340  158.8564 C.3     1  UNL1        0.0421
     12 N         142.5448  135.9882  156.8684 N.3     1  UNL1       -0.2713
     13 C         143.2882  134.8355  157.4757 C.3     1  UNL1        0.0896
     14 C         143.0471  133.4414  156.9772 C.3     1  UNL1        0.0897
     15 N         142.0628  133.2000  155.8713 N.3     1  UNL1       -0.2682
     16 C         141.3195  134.3527  155.2640 C.3     1  UNL1        0.0897
     17 C         141.5606  135.7468  155.7626 C.3     1  UNL1        0.0896
     18 C         141.8218  131.8060  155.3729 C.3     1  UNL1        0.1043
     19 C         142.8353  130.7309  155.6324 C.3     1  UNL1        0.1544
     20 O         143.6163  130.1458  154.4933 O.3     1  UNL1       -0.3805
     21 H         143.0158  129.6637  153.9034 H       1  UNL1        0.2105
     22 N         143.7668  142.1231  162.5978 N.pl3   1  UNL1       -0.2801
     23 H         144.6816  142.3751  162.8603 H       1  UNL1        0.1552
     24 C         140.2963  142.8154  164.3941 C.ar    1  UNL1        0.1472
     25 N         141.4710  142.0853  163.8137 N.ar    1  UNL1       -0.1976
     26 C         142.5920  142.8532  163.1783 C.ar    1  UNL1        0.2220
     27 N         142.5382  144.3513  163.1234 N.ar    1  UNL1       -0.2110
     28 C         141.3635  145.0814  163.7038 C.ar    1  UNL1        0.1160
     29 C         140.2425  144.3134  164.3392 C.ar    1  UNL1        0.1085
     30 CL        139.0678  145.0435  164.9197 Cl      1  UNL1       -0.0777
     31 N         139.1754  142.0474  165.0295 N.pl3   1  UNL1       -0.2970
     32 H         138.5169  142.5137  165.5936 H       1  UNL1        0.1536
     33 C         139.3110  139.6164  165.9361 C.ar    1  UNL1        0.0668
     34 C         139.1933  138.1379  165.7120 C.ar    1  UNL1        0.0058
     35 C         138.8225  137.6119  164.3570 C.ar    1  UNL1        0.0002
     36 C         138.5693  138.5643  163.2262 C.ar    1  UNL1        0.0013
     37 C         138.6869  140.0428  163.4504 C.ar    1  UNL1        0.0148
     38 C         139.0578  140.5689  164.8053 C.ar    1  UNL1        0.0537
     39 C         139.2832  140.2304  169.8569 C.3     1  UNL1        0.1109
     40 N         138.9124  139.7044  168.5019 N.am    1  UNL1       -0.2991
     41 C         139.6817  140.1423  167.2910 C.2     1  UNL1        0.2471
     42 O         140.8220  141.1063  167.4350 O.2     1  UNL1       -0.2701
     43 H         138.1640  139.0718  168.4074 H       1  UNL1        0.1498
     44 O         143.7231  142.7021  159.6544 O.3     1  UNL1       -0.4705
     45 C         142.5461  143.6222  159.5205 C.3     1  UNL1        0.2525
@<TRIPOS>BOND
     1    39    40    1
     2    40    41   am
     3    41    42    2
     4    41    33    1
     5    33    34   ar
     6    34    35   ar
     7    35    36   ar
     8    36    37   ar
     9    37    38   ar
    10    38    31    1
    11    31    24    1
    12    24    25   ar
    13    25    26   ar
    14    26    22    1
    15    22     1    1
    16     1     2   ar
    17     2     3   ar
    18     3     4   ar
    19     4     5   ar
    20     5     6   ar
    21     6    44    1
    22    44    45    1
    23     5     7    1
    24     7     8    1
    25     8     9    1
    26     9    10    1
    27    10    12    1
    28    12    13    1
    29    13    14    1
    30    14    15    1
    31    15    18    1
    32    18    19    1
    33    19    20    1
    34    15    16    1
    35    16    17    1
    36    10    11    1
    37    26    27   ar
    38    27    28   ar
    39    28    29   ar
    40    29    30    1
    41    38    33   ar
    42    29    24   ar
    43     6     1   ar
    44    17    12    1
    45    11     4    1
    46    40    43    1
    47    31    32    1
    48    22    23    1
    49    20    21    1
@<TRIPOS>MOLECULE
*****
 45 49 0 0 0
SMALL
GASTEIGER

@<TRIPOS>ATOM
      1 C         138.0994  140.0816  160.2804 C.ar    1  UNL1        0.0846
      2 C         137.6505  141.0464  161.3376 C.ar    1  UNL1        0.0174
      3 C         138.2322  140.9705  162.7181 C.ar    1  UNL1       -0.0031
      4 C         139.2629  139.9297  163.0415 C.ar    1  UNL1       -0.0218
      5 C         139.7117  138.9650  161.9844 C.ar    1  UNL1        0.0091
      6 C         139.1301  139.0408  160.6039 C.ar    1  UNL1        0.1477
      7 C         140.7195  137.8593  162.0944 C.3     1  UNL1        0.0292
      8 C         141.5272  137.4454  163.2888 C.3     1  UNL1        0.0062
      9 C         141.5265  138.0350  164.6680 C.3     1  UNL1        0.0166
     10 C         140.7181  139.1840  165.1936 C.3     1  UNL1        0.0619
     11 C         139.7107  140.0272  164.4698 C.3     1  UNL1        0.0421
     12 N         140.9475  139.5363  166.6335 N.3     1  UNL1       -0.2713
     13 C         139.8000  139.9893  167.4868 C.3     1  UNL1        0.0896
     14 C         140.0294  140.3416  168.9267 C.3     1  UNL1        0.0897
     15 N         141.4063  140.2411  169.5133 N.3     1  UNL1       -0.2682
     16 C         142.5538  139.7882  168.6600 C.3     1  UNL1        0.0897
     17 C         142.3244  139.4358  167.2200 C.3     1  UNL1        0.0896
     18 C         141.6357  140.5934  170.9531 C.3     1  UNL1        0.1043
     19 C         141.4076  141.9983  171.4270 C.3     1  UNL1        0.1544
     20 O         141.9556  143.1529  170.6419 O.3     1  UNL1       -0.3805
     21 H         142.9251  143.1289  170.6657 H       1  UNL1        0.2105
     22 N         137.5177  140.1576  158.8999 N.pl3   1  UNL1       -0.2801
     23 H         136.9218  139.4436  158.5769 H       1  UNL1        0.1552
     24 C         139.2730  143.4300  157.4997 C.ar    1  UNL1        0.1472
     25 N         138.9467  142.2661  158.3879 N.ar    1  UNL1       -0.1976
     26 C         137.8440  141.3214  158.0117 C.ar    1  UNL1        0.2220
     27 N         137.0675  141.5406  156.7471 N.ar    1  UNL1       -0.2110
     28 C         137.3937  142.7044  155.8588 C.ar    1  UNL1        0.1160
     29 C         138.4965  143.6491  156.2351 C.ar    1  UNL1        0.1085
     30 CL        138.8228  144.8130  155.3468 Cl      1  UNL1       -0.0777
     31 N         140.3757  144.3746  157.8760 N.pl3   1  UNL1       -0.2970
     32 H         140.3346  145.3168  157.5935 H       1  UNL1        0.1536
     33 C         141.5398  144.0404  160.1746 C.ar    1  UNL1        0.0668
     34 C         142.7052  143.5494  160.9813 C.ar    1  UNL1        0.0058
     35 C         143.8719  142.9016  160.2963 C.ar    1  UNL1        0.0002
     36 C         143.8732  142.7448  158.8045 C.ar    1  UNL1        0.0013
     37 C         142.7078  143.2358  157.9977 C.ar    1  UNL1        0.0148
     38 C         141.5411  143.8836  158.6827 C.ar    1  UNL1        0.0537
     39 C         138.7060  144.7914  162.8495 C.3     1  UNL1        0.1109
     40 N         139.8727  144.1436  162.1645 N.am    1  UNL1       -0.2991
     41 C         140.3732  144.6882  160.8596 C.2     1  UNL1        0.2471
     42 O         139.7070  145.8806  160.2396 O.2     1  UNL1       -0.2701
     43 H         140.3099  143.3610  162.5714 H       1  UNL1        0.1498
     44 O         139.5791  138.0760  159.5467 O.3     1  UNL1       -0.4705
     45 C         140.5691  138.5100  158.5069 C.3     1  UNL1        0.2525
@<TRIPOS>BOND
     1    39    40    1
     2    40    41   am
     3    41    42    2
     4    41    33    1
     5    33    34   ar
     6    34    35   ar
     7    35    36   ar
     8    36    37   ar
     9    37    38   ar
    10    38    31    1
    11    31    24    1
    12    24    25   ar
    13    25    26   ar
    14    26    22    1
    15    22     1    1
    16     1     2   ar
    17     2     3   ar
    18     3     4   ar
    19     4     5   ar
    20     5     6   ar
    21     6    44    1
    22    44    45    1
    23     5     7    1
    24     7     8    1
    25     8     9    1
    26     9    10    1
    27    10    12    1
    28    12    13    1
    29    13    14    1
    30    14    15    1
    31    15    18    1
    32    18    19    1
    33    19    20    1
    34    15    16    1
    35    16    17    1
    36    10    11    1
    37    26    27   ar
    38    27    28   ar
    39    28    29   ar
    40    29    30    1
    41    38    33   ar
    42    29    24   ar
    43     6     1   ar
    44    17    12    1
    45    11     4    1
    46    40    43    1
    47    31    32    1
    48    22    23    1
    49    20    21    1
