@<TRIPOS>MOLECULE
*****
 33 37 0 0 0
SMALL
GASTEIGER

@<TRIPOS>ATOM
      1 O         138.5052  139.1302  167.6390 O.2     1  UNL1       -0.2665
      2 C         139.7329  139.9747  167.4669 C.ar    1  UNL1        0.2672
      3 C         140.4287  140.5406  168.6693 C.ar    1  UNL1        0.0742
      4 C         139.8967  140.2620  170.0438 C.ar    1  UNL1        0.0063
      5 C         140.5925  140.8279  171.2462 C.ar    1  UNL1        0.0003
      6 C         141.8201  141.6723  171.0740 C.ar    1  UNL1        0.0015
      7 C         142.3521  141.9510  169.6995 C.ar    1  UNL1        0.0193
      8 C         141.6563  141.3851  168.4971 C.ar    1  UNL1        0.0875
      9 N         142.1883  141.6637  167.1225 N.ar    1  UNL1       -0.2277
     10 C         141.4925  141.0978  165.9202 C.ar    1  UNL1        0.1498
     11 N         140.2649  140.2533  166.0923 N.ar    1  UNL1       -0.2592
     12 C         142.0245  141.3764  164.5455 C.ar    1  UNL1        0.0347
     13 C         142.8050  140.3236  163.8158 C.ar    1  UNL1        0.0061
     14 C         143.3369  140.6021  162.4412 C.ar    1  UNL1        0.0370
     15 C         143.0883  141.9334  161.7964 C.ar    1  UNL1        0.1386
     16 C         142.3079  142.9862  162.5262 C.ar    1  UNL1        0.0370
     17 C         141.7759  142.7077  163.9007 C.ar    1  UNL1        0.0061
     18 O         143.6203  142.2120  160.4218 O.3     1  UNL1       -0.4754
     19 C         142.8254  143.0513  159.4659 C.3     1  UNL1        0.2068
     20 C         141.5002  142.5620  158.9614 C.3     1  UNL1        0.0646
     21 C         140.3093  143.4739  158.9754 C.3     1  UNL1        0.0759
     22 N         139.7971  144.0187  160.2756 N.3     1  UNL1       -0.2726
     23 C         138.9005  143.1812  161.1386 C.3     1  UNL1        0.0721
     24 C         138.3883  143.7261  162.4389 C.3     1  UNL1        0.0174
     25 C         138.7726  145.1085  162.8762 C.3     1  UNL1        0.0029
     26 C         139.6691  145.9460  162.0133 C.3     1  UNL1        0.0174
     27 C         140.1814  145.4012  160.7130 C.3     1  UNL1        0.0721
     28 C         139.5691  139.6874  164.8899 C.ar    1  UNL1        0.0682
     29 C         139.8357  138.2737  164.4654 C.ar    1  UNL1        0.0177
     30 C         139.1399  137.7078  163.2630 C.ar    1  UNL1        0.0015
     31 C         138.1777  138.5558  162.4851 C.ar    1  UNL1        0.0001
     32 C         137.9111  139.9695  162.9096 C.ar    1  UNL1        0.0015
     33 C         138.6069  140.5353  164.1120 C.ar    1  UNL1        0.0177
@<TRIPOS>BOND
     1     1     2    2
     2     2     3   ar
     3     3     4   ar
     4     4     5   ar
     5     5     6   ar
     6     6     7   ar
     7     7     8   ar
     8     8     9   ar
     9     9    10   ar
    10    10    12    1
    11    12    13   ar
    12    13    14   ar
    13    14    15   ar
    14    15    18    1
    15    18    19    1
    16    19    20    1
    17    20    21    1
    18    21    22    1
    19    22    23    1
    20    23    24    1
    21    24    25    1
    22    25    26    1
    23    26    27    1
    24    15    16   ar
    25    16    17   ar
    26    10    11   ar
    27    11    28    1
    28    28    29   ar
    29    29    30   ar
    30    30    31   ar
    31    31    32   ar
    32    32    33   ar
    33    11     2   ar
    34    33    28   ar
    35     8     3   ar
    36    17    12   ar
    37    27    22    1
@<TRIPOS>MOLECULE
*****
 33 37 0 0 0
SMALL
GASTEIGER

@<TRIPOS>ATOM
      1 O         143.9290  142.8848  167.7701 O.2     1  UNL1       -0.2665
      2 C         142.5953  142.2513  167.5057 C.ar    1  UNL1        0.2672
      3 C         141.8461  141.5867  168.6224 C.ar    1  UNL1        0.0742
      4 C         142.4306  141.5556  170.0035 C.ar    1  UNL1        0.0063
      5 C         141.6814  140.8910  171.1201 C.ar    1  UNL1        0.0003
      6 C         140.3477  140.2575  170.8557 C.ar    1  UNL1        0.0015
      7 C         139.7632  140.2886  169.4747 C.ar    1  UNL1        0.0193
      8 C         140.5124  140.9532  168.3580 C.ar    1  UNL1        0.0875
      9 N         139.9279  140.9844  166.9769 N.ar    1  UNL1       -0.2277
     10 C         140.6770  141.6490  165.8603 C.ar    1  UNL1        0.1498
     11 N         142.0108  142.2825  166.1246 N.ar    1  UNL1       -0.2592
     12 C         140.0925  141.6801  164.4791 C.ar    1  UNL1        0.0347
     13 C         140.9280  141.2728  163.3018 C.ar    1  UNL1        0.0061
     14 C         140.3435  141.3040  161.9207 C.ar    1  UNL1        0.0370
     15 C         138.9236  141.7424  161.7170 C.ar    1  UNL1        0.1386
     16 C         138.0882  142.1497  162.8943 C.ar    1  UNL1        0.0370
     17 C         138.6726  142.1186  164.2754 C.ar    1  UNL1        0.0061
     18 O         138.3391  141.7736  160.3359 O.3     1  UNL1       -0.4754
     19 C         138.0610  140.4906  159.6101 C.3     1  UNL1        0.2068
     20 C         137.8033  139.2318  160.3839 C.3     1  UNL1        0.0646
     21 C         138.9155  138.2522  160.6146 C.3     1  UNL1        0.0759
     22 N         139.4614  138.0491  161.9969 N.3     1  UNL1       -0.2726
     23 C         138.5705  138.2326  163.1896 C.3     1  UNL1        0.0721
     24 C         139.1164  138.0295  164.5719 C.3     1  UNL1        0.0174
     25 C         140.5533  137.6428  164.7614 C.3     1  UNL1        0.0029
     26 C         141.4442  137.4592  163.5687 C.3     1  UNL1        0.0174
     27 C         140.8983  137.6624  162.1865 C.3     1  UNL1        0.0721
     28 C         142.7599  142.9471  165.0079 C.ar    1  UNL1        0.0682
     29 C         142.3149  144.2860  164.4988 C.ar    1  UNL1        0.0177
     30 C         143.0641  144.9506  163.3821 C.ar    1  UNL1        0.0015
     31 C         144.2583  144.2762  162.7745 C.ar    1  UNL1        0.0001
     32 C         144.7033  142.9373  163.2836 C.ar    1  UNL1        0.0015
     33 C         143.9542  142.2728  164.4003 C.ar    1  UNL1        0.0177
@<TRIPOS>BOND
     1     1     2    2
     2     2     3   ar
     3     3     4   ar
     4     4     5   ar
     5     5     6   ar
     6     6     7   ar
     7     7     8   ar
     8     8     9   ar
     9     9    10   ar
    10    10    12    1
    11    12    13   ar
    12    13    14   ar
    13    14    15   ar
    14    15    18    1
    15    18    19    1
    16    19    20    1
    17    20    21    1
    18    21    22    1
    19    22    23    1
    20    23    24    1
    21    24    25    1
    22    25    26    1
    23    26    27    1
    24    15    16   ar
    25    16    17   ar
    26    10    11   ar
    27    11    28    1
    28    28    29   ar
    29    29    30   ar
    30    30    31   ar
    31    31    32   ar
    32    32    33   ar
    33    11     2   ar
    34    33    28   ar
    35     8     3   ar
    36    17    12   ar
    37    27    22    1
@<TRIPOS>MOLECULE
*****
 33 37 0 0 0
SMALL
GASTEIGER

@<TRIPOS>ATOM
      1 O         139.8625  143.6106  168.0925 O.2     1  UNL1       -0.2665
      2 C         140.4700  142.3152  167.6422 C.ar    1  UNL1        0.2672
      3 C         141.2421  141.4714  168.6129 C.ar    1  UNL1        0.0742
      4 C         141.4065  141.9232  170.0338 C.ar    1  UNL1        0.0063
      5 C         142.1785  141.0795  171.0044 C.ar    1  UNL1        0.0003
      6 C         142.7860  139.7840  170.5541 C.ar    1  UNL1        0.0015
      7 C         142.6216  139.3323  169.1333 C.ar    1  UNL1        0.0193
      8 C         141.8496  140.1760  168.1627 C.ar    1  UNL1        0.0875
      9 N         141.6851  139.7243  166.7418 N.ar    1  UNL1       -0.2277
     10 C         140.9131  140.5680  165.7711 C.ar    1  UNL1        0.1498
     11 N         140.3056  141.8634  166.2214 N.ar    1  UNL1       -0.2592
     12 C         140.7486  140.1163  164.3502 C.ar    1  UNL1        0.0347
     13 C         141.1119  141.0375  163.2236 C.ar    1  UNL1        0.0061
     14 C         140.9474  140.5858  161.8027 C.ar    1  UNL1        0.0370
     15 C         140.4196  139.2130  161.5085 C.ar    1  UNL1        0.1386
     16 C         140.0563  138.2917  162.6351 C.ar    1  UNL1        0.0370
     17 C         140.2208  138.7434  164.0560 C.ar    1  UNL1        0.0061
     18 O         140.2551  138.7612  160.0876 O.3     1  UNL1       -0.4754
     19 C         141.4474  138.6909  159.1801 C.3     1  UNL1        0.2068
     20 C         142.7623  138.1968  159.7063 C.3     1  UNL1        0.0646
     21 C         143.8658  139.1694  160.0003 C.3     1  UNL1        0.0759
     22 N         144.1422  139.5850  161.4147 N.3     1  UNL1       -0.2726
     23 C         143.9464  138.6075  162.5356 C.3     1  UNL1        0.0721
     24 C         144.2229  139.0232  163.9501 C.3     1  UNL1        0.0174
     25 C         144.6950  140.4163  164.2438 C.3     1  UNL1        0.0029
     26 C         144.8908  141.3938  163.1229 C.3     1  UNL1        0.0174
     27 C         144.6144  140.9782  161.7085 C.3     1  UNL1        0.0721
     28 C         139.5335  142.7072  165.2507 C.ar    1  UNL1        0.0682
     29 C         140.1083  144.0032  164.7610 C.ar    1  UNL1        0.0177
     30 C         139.3363  144.8469  163.7904 C.ar    1  UNL1        0.0015
     31 C         137.9895  144.3945  163.3094 C.ar    1  UNL1        0.0001
     32 C         137.4147  143.0984  163.7991 C.ar    1  UNL1        0.0015
     33 C         138.1867  142.2548  164.7697 C.ar    1  UNL1        0.0177
@<TRIPOS>BOND
     1     1     2    2
     2     2     3   ar
     3     3     4   ar
     4     4     5   ar
     5     5     6   ar
     6     6     7   ar
     7     7     8   ar
     8     8     9   ar
     9     9    10   ar
    10    10    12    1
    11    12    13   ar
    12    13    14   ar
    13    14    15   ar
    14    15    18    1
    15    18    19    1
    16    19    20    1
    17    20    21    1
    18    21    22    1
    19    22    23    1
    20    23    24    1
    21    24    25    1
    22    25    26    1
    23    26    27    1
    24    15    16   ar
    25    16    17   ar
    26    10    11   ar
    27    11    28    1
    28    28    29   ar
    29    29    30   ar
    30    30    31   ar
    31    31    32   ar
    32    32    33   ar
    33    11     2   ar
    34    33    28   ar
    35     8     3   ar
    36    17    12   ar
    37    27    22    1
@<TRIPOS>MOLECULE
*****
 33 37 0 0 0
SMALL
GASTEIGER

@<TRIPOS>ATOM
      1 O         141.8104  145.5274  159.1033 O.2     1  UNL1       -0.2665
      2 C         140.8148  144.4300  159.3367 C.ar    1  UNL1        0.2672
      3 C         139.8432  144.0566  158.2566 C.ar    1  UNL1        0.0742
      4 C         139.8672  144.7806  156.9431 C.ar    1  UNL1        0.0063
      5 C         138.8956  144.4072  155.8631 C.ar    1  UNL1        0.0003
      6 C         137.9001  143.3097  156.0965 C.ar    1  UNL1        0.0015
      7 C         137.8761  142.5857  157.4099 C.ar    1  UNL1        0.0193
      8 C         138.8477  142.9591  158.4900 C.ar    1  UNL1        0.0875
      9 N         138.8237  142.2350  159.8035 N.ar    1  UNL1       -0.2277
     10 C         139.7953  142.6085  160.8835 C.ar    1  UNL1        0.1498
     11 N         140.7908  143.7059  160.6501 N.ar    1  UNL1       -0.2592
     12 C         139.7714  141.8844  162.1971 C.ar    1  UNL1        0.0347
     13 C         140.6376  140.6774  162.4040 C.ar    1  UNL1        0.0061
     14 C         140.6137  139.9534  163.7174 C.ar    1  UNL1        0.0370
     15 C         139.7236  140.4363  164.8239 C.ar    1  UNL1        0.1386
     16 C         138.8573  141.6433  164.6170 C.ar    1  UNL1        0.0370
     17 C         138.8812  142.3674  163.3035 C.ar    1  UNL1        0.0061
     18 O         139.6996  139.7123  166.1374 O.3     1  UNL1       -0.4754
     19 C         139.6000  140.4860  167.4186 C.3     1  UNL1        0.2068
     20 C         140.4522  140.1054  168.5928 C.3     1  UNL1        0.0646
     21 C         141.9308  140.3557  168.5589 C.3     1  UNL1        0.0759
     22 N         142.6847  140.2218  167.2692 N.3     1  UNL1       -0.2726
     23 C         143.1151  138.8674  166.7891 C.3     1  UNL1        0.0721
     24 C         143.8690  138.7335  165.4992 C.3     1  UNL1        0.0174
     25 C         144.1927  139.9540  164.6895 C.3     1  UNL1        0.0029
     26 C         143.7623  141.3084  165.1696 C.3     1  UNL1        0.0174
     27 C         143.0084  141.4423  166.4594 C.3     1  UNL1        0.0721
     28 C         141.7625  144.0793  161.7303 C.ar    1  UNL1        0.0682
     29 C         143.1578  143.5296  161.7067 C.ar    1  UNL1        0.0177
     30 C         144.1294  143.9030  162.7868 C.ar    1  UNL1        0.0015
     31 C         143.7055  144.8262  163.8905 C.ar    1  UNL1        0.0001
     32 C         142.3101  145.3760  163.9140 C.ar    1  UNL1        0.0015
     33 C         141.3386  145.0025  162.8339 C.ar    1  UNL1        0.0177
@<TRIPOS>BOND
     1     1     2    2
     2     2     3   ar
     3     3     4   ar
     4     4     5   ar
     5     5     6   ar
     6     6     7   ar
     7     7     8   ar
     8     8     9   ar
     9     9    10   ar
    10    10    12    1
    11    12    13   ar
    12    13    14   ar
    13    14    15   ar
    14    15    18    1
    15    18    19    1
    16    19    20    1
    17    20    21    1
    18    21    22    1
    19    22    23    1
    20    23    24    1
    21    24    25    1
    22    25    26    1
    23    26    27    1
    24    15    16   ar
    25    16    17   ar
    26    10    11   ar
    27    11    28    1
    28    28    29   ar
    29    29    30   ar
    30    30    31   ar
    31    31    32   ar
    32    32    33   ar
    33    11     2   ar
    34    33    28   ar
    35     8     3   ar
    36    17    12   ar
    37    27    22    1
@<TRIPOS>MOLECULE
*****
 33 37 0 0 0
SMALL
GASTEIGER

@<TRIPOS>ATOM
      1 O         143.3552  142.3375  167.8259 O.2     1  UNL1       -0.2665
      2 C         142.2227  141.5018  167.3071 C.ar    1  UNL1        0.2672
      3 C         141.0876  141.1304  168.2146 C.ar    1  UNL1        0.0742
      4 C         141.0849  141.5947  169.6409 C.ar    1  UNL1        0.0063
      5 C         139.9498  141.2232  170.5484 C.ar    1  UNL1        0.0003
      6 C         138.8173  140.3876  170.0295 C.ar    1  UNL1        0.0015
      7 C         138.8200  139.9233  168.6032 C.ar    1  UNL1        0.0193
      8 C         139.9551  140.2947  167.6958 C.ar    1  UNL1        0.0875
      9 N         139.9578  139.8304  166.2694 N.ar    1  UNL1       -0.2277
     10 C         141.0930  140.2018  165.3619 C.ar    1  UNL1        0.1498
     11 N         142.2254  141.0375  165.8808 N.ar    1  UNL1       -0.2592
     12 C         141.0957  139.7375  163.9355 C.ar    1  UNL1        0.0347
     13 C         140.9390  138.2792  163.6212 C.ar    1  UNL1        0.0061
     14 C         140.9417  137.8149  162.1949 C.ar    1  UNL1        0.0370
     15 C         141.1011  138.8089  161.0829 C.ar    1  UNL1        0.1386
     16 C         141.2579  140.2672  161.3973 C.ar    1  UNL1        0.0370
     17 C         141.2551  140.7315  162.8236 C.ar    1  UNL1        0.0061
     18 O         141.1039  138.3447  159.6565 O.3     1  UNL1       -0.4754
     19 C         139.8668  138.4847  158.8199 C.3     1  UNL1        0.2068
     20 C         139.3789  139.8469  158.4246 C.3     1  UNL1        0.0646
     21 C         138.0719  140.3583  158.9539 C.3     1  UNL1        0.0759
     22 N         137.9919  140.9143  160.3447 N.3     1  UNL1       -0.2726
     23 C         137.6544  140.0123  161.4947 C.3     1  UNL1        0.0721
     24 C         137.5745  140.5684  162.8856 C.3     1  UNL1        0.0174
     25 C         137.8320  142.0264  163.1264 C.3     1  UNL1        0.0029
     26 C         138.1695  142.9283  161.9764 C.3     1  UNL1        0.0174
     27 C         138.2495  142.3723  160.5855 C.3     1  UNL1        0.0721
     28 C         143.3606  141.4089  164.9732 C.ar    1  UNL1        0.0682
     29 C         144.4140  140.3956  164.6366 C.ar    1  UNL1        0.0177
     30 C         145.5491  140.7670  163.7291 C.ar    1  UNL1        0.0015
     31 C         145.6307  142.1518  163.1583 C.ar    1  UNL1        0.0001
     32 C         144.5773  143.1651  163.4949 C.ar    1  UNL1        0.0015
     33 C         143.4422  142.7937  164.4024 C.ar    1  UNL1        0.0177
@<TRIPOS>BOND
     1     1     2    2
     2     2     3   ar
     3     3     4   ar
     4     4     5   ar
     5     5     6   ar
     6     6     7   ar
     7     7     8   ar
     8     8     9   ar
     9     9    10   ar
    10    10    12    1
    11    12    13   ar
    12    13    14   ar
    13    14    15   ar
    14    15    18    1
    15    18    19    1
    16    19    20    1
    17    20    21    1
    18    21    22    1
    19    22    23    1
    20    23    24    1
    21    24    25    1
    22    25    26    1
    23    26    27    1
    24    15    16   ar
    25    16    17   ar
    26    10    11   ar
    27    11    28    1
    28    28    29   ar
    29    29    30   ar
    30    30    31   ar
    31    31    32   ar
    32    32    33   ar
    33    11     2   ar
    34    33    28   ar
    35     8     3   ar
    36    17    12   ar
    37    27    22    1
@<TRIPOS>MOLECULE
*****
 33 37 0 0 0
SMALL
GASTEIGER

@<TRIPOS>ATOM
      1 O         143.1704  138.7746  167.6252 O.2     1  UNL1       -0.2665
      2 C         142.2137  139.9275  167.5501 C.ar    1  UNL1        0.2672
      3 C         141.8115  140.6511  168.8011 C.ar    1  UNL1        0.0742
      4 C         142.3660  140.2217  170.1270 C.ar    1  UNL1        0.0063
      5 C         141.9638  140.9452  171.3779 C.ar    1  UNL1        0.0003
      6 C         141.0071  142.0982  171.3027 C.ar    1  UNL1        0.0015
      7 C         140.4527  142.5275  169.9768 C.ar    1  UNL1        0.0193
      8 C         140.8549  141.8040  168.7259 C.ar    1  UNL1        0.0875
      9 N         140.3005  142.2333  167.3999 N.ar    1  UNL1       -0.2277
     10 C         140.7027  141.5098  166.1490 C.ar    1  UNL1        0.1498
     11 N         141.6593  140.3569  166.2242 N.ar    1  UNL1       -0.2592
     12 C         140.1482  141.9391  164.8230 C.ar    1  UNL1        0.0347
     13 C         140.9401  142.8586  163.9412 C.ar    1  UNL1        0.0061
     14 C         140.3857  143.2880  162.6153 C.ar    1  UNL1        0.0370
     15 C         139.0395  142.7978  162.1710 C.ar    1  UNL1        0.1386
     16 C         138.2477  141.8783  163.0528 C.ar    1  UNL1        0.0370
     17 C         138.8020  141.4489  164.3787 C.ar    1  UNL1        0.0061
     18 O         138.4851  143.2272  160.8450 O.3     1  UNL1       -0.4754
     19 C         139.3072  143.0662  159.6007 C.3     1  UNL1        0.2068
     20 C         138.6569  142.6207  158.3245 C.3     1  UNL1        0.0646
     21 C         137.9311  141.3092  158.2707 C.3     1  UNL1        0.0759
     22 N         138.2783  140.2194  159.2411 N.3     1  UNL1       -0.2726
     23 C         139.5681  139.4678  159.0948 C.3     1  UNL1        0.0721
     24 C         139.9153  138.3779  160.0653 C.3     1  UNL1        0.0174
     25 C         138.9727  138.0397  161.1820 C.3     1  UNL1        0.0029
     26 C         137.6828  138.7913  161.3282 C.3     1  UNL1        0.0174
     27 C         137.3356  139.8811  160.3578 C.3     1  UNL1        0.0721
     28 C         142.0615  139.6333  164.9732 C.ar    1  UNL1        0.0682
     29 C         143.2158  140.1330  164.1560 C.ar    1  UNL1        0.0177
     30 C         143.6179  139.4094  162.9051 C.ar    1  UNL1        0.0015
     31 C         142.8658  138.1862  162.4715 C.ar    1  UNL1        0.0001
     32 C         141.7116  137.6865  163.2887 C.ar    1  UNL1        0.0015
     33 C         141.3094  138.4101  164.5396 C.ar    1  UNL1        0.0177
@<TRIPOS>BOND
     1     1     2    2
     2     2     3   ar
     3     3     4   ar
     4     4     5   ar
     5     5     6   ar
     6     6     7   ar
     7     7     8   ar
     8     8     9   ar
     9     9    10   ar
    10    10    12    1
    11    12    13   ar
    12    13    14   ar
    13    14    15   ar
    14    15    18    1
    15    18    19    1
    16    19    20    1
    17    20    21    1
    18    21    22    1
    19    22    23    1
    20    23    24    1
    21    24    25    1
    22    25    26    1
    23    26    27    1
    24    15    16   ar
    25    16    17   ar
    26    10    11   ar
    27    11    28    1
    28    28    29   ar
    29    29    30   ar
    30    30    31   ar
    31    31    32   ar
    32    32    33   ar
    33    11     2   ar
    34    33    28   ar
    35     8     3   ar
    36    17    12   ar
    37    27    22    1
@<TRIPOS>MOLECULE
*****
 33 37 0 0 0
SMALL
GASTEIGER

@<TRIPOS>ATOM
      1 O         143.1903  138.7981  167.4754 O.2     1  UNL1       -0.2665
      2 C         142.1148  139.8436  167.4596 C.ar    1  UNL1        0.2672
      3 C         141.6966  140.5088  168.7374 C.ar    1  UNL1        0.0742
      4 C         142.3540  140.1285  170.0309 C.ar    1  UNL1        0.0063
      5 C         141.9359  140.7937  171.3086 C.ar    1  UNL1        0.0003
      6 C         140.8603  141.8392  171.2928 C.ar    1  UNL1        0.0015
      7 C         140.2029  142.2194  169.9993 C.ar    1  UNL1        0.0193
      8 C         140.6211  141.5542  168.7216 C.ar    1  UNL1        0.0875
      9 N         139.9637  141.9344  167.4280 N.ar    1  UNL1       -0.2277
     10 C         140.3818  141.2692  166.1503 C.ar    1  UNL1        0.1498
     11 N         141.4574  140.2238  166.1661 N.ar    1  UNL1       -0.2592
     12 C         139.7244  141.6495  164.8567 C.ar    1  UNL1        0.0347
     13 C         139.9959  142.9912  164.2435 C.ar    1  UNL1        0.0061
     14 C         139.3386  143.3715  162.9499 C.ar    1  UNL1        0.0370
     15 C         138.4097  142.4100  162.2697 C.ar    1  UNL1        0.1386
     16 C         138.1383  141.0683  162.8829 C.ar    1  UNL1        0.0370
     17 C         138.7956  140.6880  164.1764 C.ar    1  UNL1        0.0061
     18 O         137.7523  142.7902  160.9761 O.3     1  UNL1       -0.4754
     19 C         138.4803  142.5952  159.6791 C.3     1  UNL1        0.2068
     20 C         139.9382  142.2427  159.6830 C.3     1  UNL1        0.0646
     21 C         140.9697  143.3153  159.4939 C.3     1  UNL1        0.0759
     22 N         142.1651  143.3739  160.3980 N.3     1  UNL1       -0.2726
     23 C         143.3551  142.5022  160.1255 C.3     1  UNL1        0.0721
     24 C         144.5506  142.5609  161.0297 C.3     1  UNL1        0.0174
     25 C         144.5561  143.4913  162.2063 C.3     1  UNL1        0.0029
     26 C         143.3662  144.3629  162.4788 C.3     1  UNL1        0.0174
     27 C         142.1707  144.3043  161.5747 C.3     1  UNL1        0.0721
     28 C         141.8755  139.5586  164.8883 C.ar    1  UNL1        0.0682
     29 C         141.2698  138.2443  164.4938 C.ar    1  UNL1        0.0177
     30 C         141.6880  137.5791  163.2161 C.ar    1  UNL1        0.0015
     31 C         142.7118  138.2283  162.3328 C.ar    1  UNL1        0.0001
     32 C         143.3175  139.5427  162.7272 C.ar    1  UNL1        0.0015
     33 C         142.8994  140.2078  164.0049 C.ar    1  UNL1        0.0177
@<TRIPOS>BOND
     1     1     2    2
     2     2     3   ar
     3     3     4   ar
     4     4     5   ar
     5     5     6   ar
     6     6     7   ar
     7     7     8   ar
     8     8     9   ar
     9     9    10   ar
    10    10    12    1
    11    12    13   ar
    12    13    14   ar
    13    14    15   ar
    14    15    18    1
    15    18    19    1
    16    19    20    1
    17    20    21    1
    18    21    22    1
    19    22    23    1
    20    23    24    1
    21    24    25    1
    22    25    26    1
    23    26    27    1
    24    15    16   ar
    25    16    17   ar
    26    10    11   ar
    27    11    28    1
    28    28    29   ar
    29    29    30   ar
    30    30    31   ar
    31    31    32   ar
    32    32    33   ar
    33    11     2   ar
    34    33    28   ar
    35     8     3   ar
    36    17    12   ar
    37    27    22    1
@<TRIPOS>MOLECULE
*****
 33 37 0 0 0
SMALL
GASTEIGER

@<TRIPOS>ATOM
      1 O         139.5465  144.0007  167.3472 O.2     1  UNL1       -0.2665
      2 C         140.3774  142.8076  166.9782 C.ar    1  UNL1        0.2672
      3 C         140.7113  141.7764  168.0152 C.ar    1  UNL1        0.0742
      4 C         140.2142  141.9383  169.4211 C.ar    1  UNL1        0.0063
      5 C         140.5481  140.9072  170.4580 C.ar    1  UNL1        0.0003
      6 C         141.3790  139.7141  170.0890 C.ar    1  UNL1        0.0015
      7 C         141.8762  139.5523  168.6831 C.ar    1  UNL1        0.0193
      8 C         141.5423  140.5834  167.6462 C.ar    1  UNL1        0.0875
      9 N         142.0394  140.4216  166.2402 N.ar    1  UNL1       -0.2277
     10 C         141.7055  141.4527  165.2033 C.ar    1  UNL1        0.1498
     11 N         140.8745  142.6458  165.5723 N.ar    1  UNL1       -0.2592
     12 C         142.2026  141.2909  163.7973 C.ar    1  UNL1        0.0347
     13 C         143.6636  141.0699  163.5391 C.ar    1  UNL1        0.0061
     14 C         144.1608  140.9080  162.1332 C.ar    1  UNL1        0.0370
     15 C         143.1969  140.9672  160.9854 C.ar    1  UNL1        0.1386
     16 C         141.7359  141.1883  161.2436 C.ar    1  UNL1        0.0370
     17 C         141.2388  141.3501  162.6495 C.ar    1  UNL1        0.0061
     18 O         143.6940  140.8054  159.5794 O.3     1  UNL1       -0.4754
     19 C         143.3132  139.5918  158.7843 C.3     1  UNL1        0.2068
     20 C         143.0055  138.3020  159.4855 C.3     1  UNL1        0.0646
     21 C         141.5818  137.9217  159.7656 C.3     1  UNL1        0.0759
     22 N         141.0865  137.8594  161.1801 N.3     1  UNL1       -0.2726
     23 C         139.6217  138.0043  161.4690 C.3     1  UNL1        0.0721
     24 C         139.1265  137.9420  162.8835 C.3     1  UNL1        0.0174
     25 C         140.0961  137.7347  164.0091 C.3     1  UNL1        0.0029
     26 C         141.5608  137.5898  163.7203 C.3     1  UNL1        0.0174
     27 C         142.0561  137.6522  162.3058 C.3     1  UNL1        0.0721
     28 C         140.5407  143.6769  164.5353 C.ar    1  UNL1        0.0682
     29 C         139.1529  143.7512  163.9711 C.ar    1  UNL1        0.0177
     30 C         138.8191  144.7824  162.9341 C.ar    1  UNL1        0.0015
     31 C         139.8731  145.7392  162.4614 C.ar    1  UNL1        0.0001
     32 C         141.2609  145.6650  163.0256 C.ar    1  UNL1        0.0015
     33 C         141.5947  144.6338  164.0626 C.ar    1  UNL1        0.0177
@<TRIPOS>BOND
     1     1     2    2
     2     2     3   ar
     3     3     4   ar
     4     4     5   ar
     5     5     6   ar
     6     6     7   ar
     7     7     8   ar
     8     8     9   ar
     9     9    10   ar
    10    10    12    1
    11    12    13   ar
    12    13    14   ar
    13    14    15   ar
    14    15    18    1
    15    18    19    1
    16    19    20    1
    17    20    21    1
    18    21    22    1
    19    22    23    1
    20    23    24    1
    21    24    25    1
    22    25    26    1
    23    26    27    1
    24    15    16   ar
    25    16    17   ar
    26    10    11   ar
    27    11    28    1
    28    28    29   ar
    29    29    30   ar
    30    30    31   ar
    31    31    32   ar
    32    32    33   ar
    33    11     2   ar
    34    33    28   ar
    35     8     3   ar
    36    17    12   ar
    37    27    22    1
@<TRIPOS>MOLECULE
*****
 33 37 0 0 0
SMALL
GASTEIGER

@<TRIPOS>ATOM
      1 O         143.9529  139.1502  165.8370 O.2     1  UNL1       -0.2665
      2 C         142.4824  139.4417  165.7860 C.ar    1  UNL1        0.2672
      3 C         141.7149  139.6519  167.0577 C.ar    1  UNL1        0.0742
      4 C         142.4180  139.5706  168.3802 C.ar    1  UNL1        0.0063
      5 C         141.6506  139.7807  169.6517 C.ar    1  UNL1        0.0003
      6 C         140.1801  140.0723  169.6008 C.ar    1  UNL1        0.0015
      7 C         139.4770  140.1536  168.2783 C.ar    1  UNL1        0.0193
      8 C         140.2444  139.9434  167.0067 C.ar    1  UNL1        0.0875
      9 N         139.5413  140.0248  165.6842 N.ar    1  UNL1       -0.2277
     10 C         140.3087  139.8146  164.4126 C.ar    1  UNL1        0.1498
     11 N         141.7793  139.5231  164.4636 N.ar    1  UNL1       -0.2592
     12 C         139.6056  139.8959  163.0901 C.ar    1  UNL1        0.0347
     13 C         139.0101  138.6617  162.4802 C.ar    1  UNL1        0.0061
     14 C         138.3070  138.7430  161.1577 C.ar    1  UNL1        0.0370
     15 C         138.1995  140.0585  160.4451 C.ar    1  UNL1        0.1386
     16 C         138.7951  141.2927  161.0550 C.ar    1  UNL1        0.0370
     17 C         139.4981  141.2114  162.3775 C.ar    1  UNL1        0.0061
     18 O         137.4964  140.1398  159.1225 O.3     1  UNL1       -0.4754
     19 C         138.2877  140.3344  157.8632 C.3     1  UNL1        0.2068
     20 C         138.7268  141.7104  157.4584 C.3     1  UNL1        0.0646
     21 C         140.1755  142.0902  157.5418 C.3     1  UNL1        0.0759
     22 N         140.6593  142.9604  158.6637 N.3     1  UNL1       -0.2726
     23 C         139.8913  144.1920  159.0424 C.3     1  UNL1        0.0721
     24 C         140.3751  145.0622  160.1643 C.3     1  UNL1        0.0174
     25 C         141.6269  144.7009  160.9075 C.3     1  UNL1        0.0029
     26 C         142.3950  143.4693  160.5288 C.3     1  UNL1        0.0174
     27 C         141.9112  142.5991  159.4070 C.3     1  UNL1        0.0721
     28 C         142.5467  139.3129  163.1919 C.ar    1  UNL1        0.0682
     29 C         142.5574  137.9636  162.5367 C.ar    1  UNL1        0.0177
     30 C         143.3248  137.7535  161.2652 C.ar    1  UNL1        0.0015
     31 C         144.0815  138.8927  160.6488 C.ar    1  UNL1        0.0001
     32 C         144.0707  140.2419  161.3040 C.ar    1  UNL1        0.0015
     33 C         143.3033  140.4520  162.5756 C.ar    1  UNL1        0.0177
@<TRIPOS>BOND
     1     1     2    2
     2     2     3   ar
     3     3     4   ar
     4     4     5   ar
     5     5     6   ar
     6     6     7   ar
     7     7     8   ar
     8     8     9   ar
     9     9    10   ar
    10    10    12    1
    11    12    13   ar
    12    13    14   ar
    13    14    15   ar
    14    15    18    1
    15    18    19    1
    16    19    20    1
    17    20    21    1
    18    21    22    1
    19    22    23    1
    20    23    24    1
    21    24    25    1
    22    25    26    1
    23    26    27    1
    24    15    16   ar
    25    16    17   ar
    26    10    11   ar
    27    11    28    1
    28    28    29   ar
    29    29    30   ar
    30    30    31   ar
    31    31    32   ar
    32    32    33   ar
    33    11     2   ar
    34    33    28   ar
    35     8     3   ar
    36    17    12   ar
    37    27    22    1
