@<TRIPOS>MOLECULE
*****
 25 27 0 0 0
SMALL
GASTEIGER

@<TRIPOS>ATOM
      1 C         141.1087  139.6932  166.4987 C.ar    1  UNL1       -0.0078
      2 C         140.3917  139.7938  165.1851 C.ar    1  UNL1        0.0001
      3 C         141.0202  139.2352  163.9429 C.ar    1  UNL1        0.0366
      4 C         142.3656  138.5758  164.0145 C.ar    1  UNL1        0.1390
      5 C         143.0826  138.4752  165.3282 C.ar    1  UNL1        0.0366
      6 C         142.4541  139.0338  166.5703 C.ar    1  UNL1        0.0001
      7 C         140.0508  141.6331  169.6898 C.3     1  UNL1        0.1315
      8 C         138.9755  140.5898  169.6150 C.3     1  UNL1        0.0268
      9 C         139.2410  139.7362  168.4106 C.3     1  UNL1        0.0221
     10 C         140.4803  140.2518  167.7409 C.3     1  UNL1        0.0772
     11 N         140.9807  141.4242  168.5316 N.3     1  UNL1       -0.2890
     12 H         140.9942  142.2577  167.9438 H       1  UNL1        0.1239
     13 N         140.0186  144.1422  170.3633 N.am    1  UNL1       -0.3277
     14 C         140.1743  142.6983  170.7387 C.2     1  UNL1        0.2336
     15 O         140.4536  142.3196  172.1630 O.2     1  UNL1       -0.2739
     16 H         140.0997  144.8413  171.0518 H       1  UNL1        0.1450
     17 H         139.8353  144.3907  169.4285 H       1  UNL1        0.1450
     18 O         142.9941  138.0172  162.7723 O.3     1  UNL1       -0.4706
     19 C         144.0506  138.7990  162.0495 C.3     1  UNL1        0.2320
     20 C         144.2297  140.2605  162.3357 C.ar    1  UNL1        0.0212
     21 C         143.4310  141.2771  161.5750 C.ar    1  UNL1       -0.0007
     22 C         143.6101  142.7386  161.8612 C.ar    1  UNL1       -0.0002
     23 C         144.5879  143.1835  162.9081 C.ar    1  UNL1       -0.0000
     24 C         145.3866  142.1670  163.6688 C.ar    1  UNL1       -0.0002
     25 C         145.2075  140.7055  163.3826 C.ar    1  UNL1       -0.0007
@<TRIPOS>BOND
     1    13    14   am
     2    14    15    2
     3     7    14    1
     4     7     8    1
     5     8     9    1
     6     9    10    1
     7    10     1    1
     8     1     2   ar
     9     2     3   ar
    10     3     4   ar
    11     4    18    1
    12    18    19    1
    13    19    20    1
    14    20    21   ar
    15    21    22   ar
    16    22    23   ar
    17    23    24   ar
    18    24    25   ar
    19     4     5   ar
    20     5     6   ar
    21    10    11    1
    22    11     7    1
    23     6     1   ar
    24    25    20   ar
    25    13    16    1
    26    13    17    1
    27    11    12    1
@<TRIPOS>MOLECULE
*****
 25 27 0 0 0
SMALL
GASTEIGER

@<TRIPOS>ATOM
      1 C         140.5259  139.5594  166.7035 C.ar    1  UNL1       -0.0078
      2 C         139.0269  139.5168  166.6688 C.ar    1  UNL1        0.0001
      3 C         138.3185  139.0448  165.4338 C.ar    1  UNL1        0.0366
      4 C         139.1090  138.6154  164.2335 C.ar    1  UNL1        0.1390
      5 C         140.6080  138.6580  164.2682 C.ar    1  UNL1        0.0366
      6 C         141.3164  139.1300  165.5032 C.ar    1  UNL1        0.0001
      7 C         141.7804  141.2594  169.9595 C.3     1  UNL1        0.1315
      8 C         142.8690  140.2558  169.7186 C.3     1  UNL1        0.0268
      9 C         142.5315  139.4968  168.4696 C.3     1  UNL1        0.0221
     10 C         141.2344  140.0313  167.9386 C.3     1  UNL1        0.0772
     11 N         140.7703  141.1206  168.8594 N.3     1  UNL1       -0.2890
     12 H         139.8612  140.8773  169.2529 H       1  UNL1        0.1239
     13 N         142.7911  143.2606  171.2725 N.am    1  UNL1       -0.3277
     14 C         141.7138  142.2310  171.1003 C.2     1  UNL1        0.2336
     15 O         140.5700  142.1732  172.0690 O.2     1  UNL1       -0.2739
     16 H         142.7473  143.8983  172.0212 H       1  UNL1        0.1450
     17 H         143.5418  143.2986  170.6367 H       1  UNL1        0.1450
     18 O         138.4005  138.1435  162.9984 O.3     1  UNL1       -0.4706
     19 C         137.8204  139.1403  162.0393 C.3     1  UNL1        0.2320
     20 C         138.1857  140.5907  162.1529 C.ar    1  UNL1        0.0212
     21 C         137.3163  141.5234  162.9431 C.ar    1  UNL1       -0.0007
     22 C         137.6815  142.9738  163.0567 C.ar    1  UNL1       -0.0002
     23 C         138.9161  143.4915  162.3801 C.ar    1  UNL1       -0.0000
     24 C         139.7855  142.5589  161.5900 C.ar    1  UNL1       -0.0002
     25 C         139.4203  141.1085  161.4764 C.ar    1  UNL1       -0.0007
@<TRIPOS>BOND
     1    13    14   am
     2    14    15    2
     3     7    14    1
     4     7     8    1
     5     8     9    1
     6     9    10    1
     7    10     1    1
     8     1     2   ar
     9     2     3   ar
    10     3     4   ar
    11     4    18    1
    12    18    19    1
    13    19    20    1
    14    20    21   ar
    15    21    22   ar
    16    22    23   ar
    17    23    24   ar
    18    24    25   ar
    19     4     5   ar
    20     5     6   ar
    21    10    11    1
    22    11     7    1
    23     6     1   ar
    24    25    20   ar
    25    13    16    1
    26    13    17    1
    27    11    12    1
@<TRIPOS>MOLECULE
*****
 25 27 0 0 0
SMALL
GASTEIGER

@<TRIPOS>ATOM
      1 C         140.5479  139.5552  166.7125 C.ar    1  UNL1       -0.0078
      2 C         141.3454  139.1691  165.5022 C.ar    1  UNL1        0.0001
      3 C         140.6455  138.7000  164.2613 C.ar    1  UNL1        0.0366
      4 C         139.1481  138.6169  164.2307 C.ar    1  UNL1        0.1390
      5 C         138.3506  139.0030  165.4410 C.ar    1  UNL1        0.0366
      6 C         139.0505  139.4722  166.6819 C.ar    1  UNL1        0.0001
      7 C         141.7841  141.2536  169.9764 C.3     1  UNL1        0.1315
      8 C         142.8655  140.2390  169.7501 C.3     1  UNL1        0.0268
      9 C         142.5341  139.4794  168.4999 C.3     1  UNL1        0.0221
     10 C         141.2478  140.0244  167.9536 C.3     1  UNL1        0.0772
     11 N         140.7843  141.1209  168.8661 N.3     1  UNL1       -0.2890
     12 H         139.8689  140.8874  169.2507 H       1  UNL1        0.1239
     13 N         142.7905  143.2607  171.2835 N.am    1  UNL1       -0.3277
     14 C         141.7146  142.2295  171.1135 C.2     1  UNL1        0.2336
     15 O         140.5693  142.1741  172.0805 O.2     1  UNL1       -0.2739
     16 H         142.7450  143.9012  172.0298 H       1  UNL1        0.1450
     17 H         143.5423  143.2971  170.6488 H       1  UNL1        0.1450
     18 O         138.4482  138.1478  162.9896 O.3     1  UNL1       -0.4706
     19 C         137.7825  139.1404  162.0833 C.3     1  UNL1        0.2320
     20 C         138.1536  140.5918  162.1590 C.ar    1  UNL1        0.0212
     21 C         139.3639  141.0955  161.4302 C.ar    1  UNL1       -0.0007
     22 C         139.7350  142.5469  161.5059 C.ar    1  UNL1       -0.0002
     23 C         138.8956  143.4946  162.3105 C.ar    1  UNL1       -0.0000
     24 C         137.6853  142.9909  163.0394 C.ar    1  UNL1       -0.0002
     25 C         137.3142  141.5395  162.9636 C.ar    1  UNL1       -0.0007
@<TRIPOS>BOND
     1    13    14   am
     2    14    15    2
     3     7    14    1
     4     7     8    1
     5     8     9    1
     6     9    10    1
     7    10     1    1
     8     1     2   ar
     9     2     3   ar
    10     3     4   ar
    11     4    18    1
    12    18    19    1
    13    19    20    1
    14    20    21   ar
    15    21    22   ar
    16    22    23   ar
    17    23    24   ar
    18    24    25   ar
    19     4     5   ar
    20     5     6   ar
    21    10    11    1
    22    11     7    1
    23     6     1   ar
    24    25    20   ar
    25    13    16    1
    26    13    17    1
    27    11    12    1
@<TRIPOS>MOLECULE
*****
 25 27 0 0 0
SMALL
GASTEIGER

@<TRIPOS>ATOM
      1 C         142.8598  140.5569  166.3136 C.ar    1  UNL1       -0.0078
      2 C         142.6930  141.4336  165.1080 C.ar    1  UNL1        0.0001
      3 C         143.0389  140.9093  163.7458 C.ar    1  UNL1        0.0366
      4 C         143.5516  139.5084  163.5893 C.ar    1  UNL1        0.1390
      5 C         143.7185  138.6317  164.7949 C.ar    1  UNL1        0.0366
      6 C         143.3726  139.1560  166.1570 C.ar    1  UNL1        0.0001
      7 C         141.5188  141.3072  169.8779 C.3     1  UNL1        0.1315
      8 C         142.4445  142.4685  169.6661 C.3     1  UNL1        0.0268
      9 C         143.0595  142.3287  168.3051 C.3     1  UNL1        0.0221
     10 C         142.5139  141.0811  167.6758 C.3     1  UNL1        0.0772
     11 N         141.5617  140.4499  168.6478 N.3     1  UNL1       -0.2890
     12 H         141.8846  139.5131  168.8899 H       1  UNL1        0.1239
     13 N         139.9692  139.7453  171.2596 N.am    1  UNL1       -0.3277
     14 C         140.6949  141.0488  171.1044 C.2     1  UNL1        0.2336
     15 O         140.5966  142.0940  172.1759 O.2     1  UNL1       -0.2739
     16 H         139.4285  139.5757  172.0646 H       1  UNL1        0.1450
     17 H         140.0337  139.0593  170.5564 H       1  UNL1        0.1450
     18 O         143.8976  138.9842  162.2271 O.3     1  UNL1       -0.4706
     19 C         143.0478  137.9226  161.5939 C.3     1  UNL1        0.2320
     20 C         141.5536  137.9914  161.7070 C.ar    1  UNL1        0.0212
     21 C         140.8697  137.4708  162.9363 C.ar    1  UNL1       -0.0007
     22 C         139.3756  137.5397  163.0493 C.ar    1  UNL1       -0.0002
     23 C         138.5654  138.1291  161.9330 C.ar    1  UNL1       -0.0000
     24 C         139.2493  138.6497  160.7037 C.ar    1  UNL1       -0.0002
     25 C         140.7434  138.5809  160.5907 C.ar    1  UNL1       -0.0007
@<TRIPOS>BOND
     1    13    14   am
     2    14    15    2
     3     7    14    1
     4     7     8    1
     5     8     9    1
     6     9    10    1
     7    10     1    1
     8     1     2   ar
     9     2     3   ar
    10     3     4   ar
    11     4    18    1
    12    18    19    1
    13    19    20    1
    14    20    21   ar
    15    21    22   ar
    16    22    23   ar
    17    23    24   ar
    18    24    25   ar
    19     4     5   ar
    20     5     6   ar
    21    10    11    1
    22    11     7    1
    23     6     1   ar
    24    25    20   ar
    25    13    16    1
    26    13    17    1
    27    11    12    1
@<TRIPOS>MOLECULE
*****
 25 27 0 0 0
SMALL
GASTEIGER

@<TRIPOS>ATOM
      1 C         139.5632  140.6512  166.2134 C.ar    1  UNL1       -0.0078
      2 C         139.3809  139.1629  166.1752 C.ar    1  UNL1        0.0001
      3 C         138.8623  138.5025  164.9322 C.ar    1  UNL1        0.0366
      4 C         138.5261  139.3305  163.7275 C.ar    1  UNL1        0.1390
      5 C         138.7085  140.8188  163.7657 C.ar    1  UNL1        0.0366
      6 C         139.2270  141.4792  165.0086 C.ar    1  UNL1        0.0001
      7 C         140.8446  141.6726  169.7320 C.3     1  UNL1        0.1315
      8 C         140.9151  142.9834  169.0060 C.3     1  UNL1        0.0268
      9 C         140.4437  142.7603  167.5997 C.3     1  UNL1        0.0221
     10 C         140.0818  141.3117  167.4564 C.3     1  UNL1        0.0772
     11 N         140.3296  140.6395  168.7742 N.3     1  UNL1       -0.2890
     12 H         141.0208  139.8981  168.6601 H       1  UNL1        0.1239
     13 N         142.3494  140.5045  171.4986 N.am    1  UNL1       -0.3277
     14 C         141.2227  141.4365  171.1642 C.2     1  UNL1        0.2336
     15 O         140.4741  142.1324  172.2621 O.2     1  UNL1       -0.2739
     16 H         142.5976  140.3495  172.4386 H       1  UNL1        0.1450
     17 H         142.8408  140.0477  170.7781 H       1  UNL1        0.1450
     18 O         138.0075  138.6700  162.4845 O.3     1  UNL1       -0.4706
     19 C         138.9646  138.0557  161.5065 C.3     1  UNL1        0.2320
     20 C         140.4085  138.4622  161.5138 C.ar    1  UNL1        0.0212
     21 C         140.8527  139.6658  160.7367 C.ar    1  UNL1       -0.0007
     22 C         142.2965  140.0723  160.7440 C.ar    1  UNL1       -0.0002
     23 C         143.2961  139.2752  161.5285 C.ar    1  UNL1       -0.0000
     24 C         142.8519  138.0716  162.3056 C.ar    1  UNL1       -0.0002
     25 C         141.4081  137.6651  162.2983 C.ar    1  UNL1       -0.0007
@<TRIPOS>BOND
     1    13    14   am
     2    14    15    2
     3     7    14    1
     4     7     8    1
     5     8     9    1
     6     9    10    1
     7    10     1    1
     8     1     2   ar
     9     2     3   ar
    10     3     4   ar
    11     4    18    1
    12    18    19    1
    13    19    20    1
    14    20    21   ar
    15    21    22   ar
    16    22    23   ar
    17    23    24   ar
    18    24    25   ar
    19     4     5   ar
    20     5     6   ar
    21    10    11    1
    22    11     7    1
    23     6     1   ar
    24    25    20   ar
    25    13    16    1
    26    13    17    1
    27    11    12    1
@<TRIPOS>MOLECULE
*****
 25 27 0 0 0
SMALL
GASTEIGER

@<TRIPOS>ATOM
      1 C         139.2381  140.0714  166.1177 C.ar    1  UNL1       -0.0078
      2 C         139.4439  138.6045  165.8815 C.ar    1  UNL1        0.0001
      3 C         139.0894  138.0015  164.5546 C.ar    1  UNL1        0.0366
      4 C         138.5291  138.8655  163.4639 C.ar    1  UNL1        0.1390
      5 C         138.3233  140.3324  163.7000 C.ar    1  UNL1        0.0366
      6 C         138.6778  140.9353  165.0270 C.ar    1  UNL1        0.0001
      7 C         140.4459  142.1902  169.1372 C.3     1  UNL1        0.1315
      8 C         139.8302  141.0143  169.8360 C.3     1  UNL1        0.0268
      9 C         139.3028  140.0775  168.7900 C.3     1  UNL1        0.0221
     10 C         139.5926  140.6744  167.4447 C.3     1  UNL1        0.0772
     11 N         140.2990  141.9801  167.6593 N.3     1  UNL1       -0.2890
     12 H         139.7524  142.7401  167.2542 H       1  UNL1        0.1239
     13 N         140.2635  144.5462  170.2171 N.am    1  UNL1       -0.3277
     14 C         141.0945  143.3692  169.8000 C.2     1  UNL1        0.2336
     15 O         142.5743  143.3712  170.0456 O.2     1  UNL1       -0.2739
     16 H         140.6892  145.3200  170.6521 H       1  UNL1        0.1450
     17 H         139.2923  144.5449  170.0559 H       1  UNL1        0.1450
     18 O         138.1746  138.2625  162.1369 O.3     1  UNL1       -0.4706
     19 C         139.2204  138.1302  161.0698 C.3     1  UNL1        0.2320
     20 C         140.6152  138.6216  161.3215 C.ar    1  UNL1        0.0212
     21 C         141.6415  137.6978  161.9074 C.ar    1  UNL1       -0.0007
     22 C         143.0361  138.1891  162.1591 C.ar    1  UNL1       -0.0002
     23 C         143.4045  139.6043  161.8250 C.ar    1  UNL1       -0.0000
     24 C         142.3782  140.5281  161.2391 C.ar    1  UNL1       -0.0002
     25 C         140.9836  140.0367  160.9874 C.ar    1  UNL1       -0.0007
@<TRIPOS>BOND
     1    13    14   am
     2    14    15    2
     3     7    14    1
     4     7     8    1
     5     8     9    1
     6     9    10    1
     7    10     1    1
     8     1     2   ar
     9     2     3   ar
    10     3     4   ar
    11     4    18    1
    12    18    19    1
    13    19    20    1
    14    20    21   ar
    15    21    22   ar
    16    22    23   ar
    17    23    24   ar
    18    24    25   ar
    19     4     5   ar
    20     5     6   ar
    21    10    11    1
    22    11     7    1
    23     6     1   ar
    24    25    20   ar
    25    13    16    1
    26    13    17    1
    27    11    12    1
@<TRIPOS>MOLECULE
*****
 25 27 0 0 0
SMALL
GASTEIGER

@<TRIPOS>ATOM
      1 C         140.9549  143.9086  164.0500 C.ar    1  UNL1       -0.0078
      2 C         142.2859  143.2715  164.3190 C.ar    1  UNL1        0.0001
      3 C         142.5356  142.5795  165.6261 C.ar    1  UNL1        0.0366
      4 C         141.4544  142.5246  166.6643 C.ar    1  UNL1        0.1390
      5 C         140.1233  143.1617  166.3953 C.ar    1  UNL1        0.0366
      6 C         139.8736  143.8538  165.0882 C.ar    1  UNL1        0.0001
      7 C         140.8496  145.2441  160.4071 C.3     1  UNL1        0.1315
      8 C         139.7919  146.0873  161.0556 C.3     1  UNL1        0.0268
      9 C         139.7027  145.6896  162.4991 C.3     1  UNL1        0.0221
     10 C         140.7051  144.6007  162.7428 C.3     1  UNL1        0.0772
     11 N         141.4139  144.3254  161.4498 N.3     1  UNL1       -0.2890
     12 H         141.2651  143.3549  161.1733 H       1  UNL1        0.1239
     13 N         140.3446  145.8948  157.9430 N.am    1  UNL1       -0.3277
     14 C         141.2691  145.3084  158.9684 C.2     1  UNL1        0.2336
     15 O         142.6132  144.7863  158.5550 O.2     1  UNL1       -0.2739
     16 H         140.6200  145.9370  156.9987 H       1  UNL1        0.1450
     17 H         139.4625  146.2375  158.2143 H       1  UNL1        0.1450
     18 O         141.7041  141.8325  167.9715 O.3     1  UNL1       -0.4706
     19 C         141.4587  140.3582  168.0985 C.3     1  UNL1        0.2320
     20 C         140.5244  139.6689  167.1488 C.ar    1  UNL1        0.0212
     21 C         141.0571  139.0448  165.8931 C.ar    1  UNL1       -0.0007
     22 C         140.1228  138.3555  164.9434 C.ar    1  UNL1       -0.0002
     23 C         138.6558  138.2902  165.2494 C.ar    1  UNL1       -0.0000
     24 C         138.1231  138.9143  166.5051 C.ar    1  UNL1       -0.0002
     25 C         139.0574  139.6036  167.4548 C.ar    1  UNL1       -0.0007
@<TRIPOS>BOND
     1    13    14   am
     2    14    15    2
     3     7    14    1
     4     7     8    1
     5     8     9    1
     6     9    10    1
     7    10     1    1
     8     1     2   ar
     9     2     3   ar
    10     3     4   ar
    11     4    18    1
    12    18    19    1
    13    19    20    1
    14    20    21   ar
    15    21    22   ar
    16    22    23   ar
    17    23    24   ar
    18    24    25   ar
    19     4     5   ar
    20     5     6   ar
    21    10    11    1
    22    11     7    1
    23     6     1   ar
    24    25    20   ar
    25    13    16    1
    26    13    17    1
    27    11    12    1
@<TRIPOS>MOLECULE
*****
 25 27 0 0 0
SMALL
GASTEIGER

@<TRIPOS>ATOM
      1 C         140.5328  139.0324  166.3088 C.ar    1  UNL1       -0.0078
      2 C         139.3718  138.5867  165.4701 C.ar    1  UNL1        0.0001
      3 C         139.6102  138.0040  164.1086 C.ar    1  UNL1        0.0366
      4 C         141.0094  137.8668  163.5859 C.ar    1  UNL1        0.1390
      5 C         142.1704  138.3125  164.4247 C.ar    1  UNL1        0.0366
      6 C         141.9321  138.8953  165.7861 C.ar    1  UNL1        0.0001
      7 C         140.6679  140.5361  169.8846 C.3     1  UNL1        0.1315
      8 C         139.1877  140.4880  169.6461 C.3     1  UNL1        0.0268
      9 C         138.9570  139.9188  168.2776 C.3     1  UNL1        0.0221
     10 C         140.2945  139.6152  167.6703 C.3     1  UNL1        0.0772
     11 N         141.3519  139.9968  168.6634 N.3     1  UNL1       -0.2890
     12 H         141.9606  140.7110  168.2638 H       1  UNL1        0.1239
     13 N         142.6811  140.4836  171.5259 N.am    1  UNL1       -0.3277
     14 C         141.3451  141.0360  171.1262 C.2     1  UNL1        0.2336
     15 O         140.6862  142.0882  171.9681 O.2     1  UNL1       -0.2739
     16 H         143.1256  140.8116  172.3408 H       1  UNL1        0.1450
     17 H         143.1136  139.7930  170.9733 H       1  UNL1        0.1450
     18 O         141.2477  137.2840  162.2244 O.3     1  UNL1       -0.4706
     19 C         141.4126  138.1890  161.0396 C.3     1  UNL1        0.2320
     20 C         140.4122  139.2765  160.7815 C.ar    1  UNL1        0.0212
     21 C         140.8103  140.7142  160.9375 C.ar    1  UNL1       -0.0007
     22 C         139.8099  141.8016  160.6794 C.ar    1  UNL1       -0.0002
     23 C         138.4114  141.4513  160.2652 C.ar    1  UNL1       -0.0000
     24 C         138.0133  140.0136  160.1092 C.ar    1  UNL1       -0.0002
     25 C         139.0137  138.9262  160.3673 C.ar    1  UNL1       -0.0007
@<TRIPOS>BOND
     1    13    14   am
     2    14    15    2
     3     7    14    1
     4     7     8    1
     5     8     9    1
     6     9    10    1
     7    10     1    1
     8     1     2   ar
     9     2     3   ar
    10     3     4   ar
    11     4    18    1
    12    18    19    1
    13    19    20    1
    14    20    21   ar
    15    21    22   ar
    16    22    23   ar
    17    23    24   ar
    18    24    25   ar
    19     4     5   ar
    20     5     6   ar
    21    10    11    1
    22    11     7    1
    23     6     1   ar
    24    25    20   ar
    25    13    16    1
    26    13    17    1
    27    11    12    1
@<TRIPOS>MOLECULE
*****
 25 27 0 0 0
SMALL
GASTEIGER

@<TRIPOS>ATOM
      1 C         142.5483  140.8412  166.2309 C.ar    1  UNL1       -0.0078
      2 C         143.1417  142.2128  166.1023 C.ar    1  UNL1        0.0001
      3 C         144.1622  142.4918  165.0390 C.ar    1  UNL1        0.0366
      4 C         144.5892  141.3991  164.1042 C.ar    1  UNL1        0.1390
      5 C         143.9958  140.0276  164.2327 C.ar    1  UNL1        0.0366
      6 C         142.9753  139.7486  165.2961 C.ar    1  UNL1        0.0001
      7 C         140.4645  140.2932  169.4594 C.3     1  UNL1        0.1315
      8 C         139.4502  139.9726  168.4018 C.3     1  UNL1        0.0268
      9 C         140.1073  140.1388  167.0637 C.3     1  UNL1        0.0221
     10 C         141.5278  140.5622  167.2943 C.3     1  UNL1        0.0772
     11 N         141.7485  140.6576  168.7749 N.3     1  UNL1       -0.2890
     12 H         142.0156  141.6098  169.0244 H       1  UNL1        0.1239
     13 N         139.6095  139.0479  171.5732 N.am    1  UNL1       -0.3277
     14 C         140.2351  140.2559  170.9413 C.2     1  UNL1        0.2336
     15 O         140.6313  141.4266  171.7913 O.2     1  UNL1       -0.2739
     16 H         139.4589  139.0234  172.5458 H       1  UNL1        0.1450
     17 H         139.3494  138.2795  171.0154 H       1  UNL1        0.1450
     18 O         145.6097  141.6782  163.0407 O.3     1  UNL1       -0.4706
     19 C         145.2083  142.3944  161.7854 C.3     1  UNL1        0.2320
     20 C         143.7665  142.4347  161.3734 C.ar    1  UNL1        0.0212
     21 C         142.9375  143.6508  161.6629 C.ar    1  UNL1       -0.0007
     22 C         141.4958  143.6911  161.2509 C.ar    1  UNL1       -0.0002
     23 C         140.8831  142.5154  160.5492 C.ar    1  UNL1       -0.0000
     24 C         141.7121  141.2993  160.2596 C.ar    1  UNL1       -0.0002
     25 C         143.1538  141.2590  160.6717 C.ar    1  UNL1       -0.0007
@<TRIPOS>BOND
     1    13    14   am
     2    14    15    2
     3     7    14    1
     4     7     8    1
     5     8     9    1
     6     9    10    1
     7    10     1    1
     8     1     2   ar
     9     2     3   ar
    10     3     4   ar
    11     4    18    1
    12    18    19    1
    13    19    20    1
    14    20    21   ar
    15    21    22   ar
    16    22    23   ar
    17    23    24   ar
    18    24    25   ar
    19     4     5   ar
    20     5     6   ar
    21    10    11    1
    22    11     7    1
    23     6     1   ar
    24    25    20   ar
    25    13    16    1
    26    13    17    1
    27    11    12    1
