@<TRIPOS>MOLECULE
*****
 31 35 0 0 0
SMALL
GASTEIGER

@<TRIPOS>ATOM
      1 C         139.4774  138.0725  161.9975 C.3     1  UNL1        0.0771
      2 N         139.5826  138.5987  163.3982 N.3     1  UNL1       -0.2695
      3 C         140.7176  138.1664  164.2786 C.3     1  UNL1        0.0938
      4 C         140.8228  138.6927  165.6793 C.3     1  UNL1        0.1081
      5 N         139.7930  139.6512  166.1996 N.pl3   1  UNL1       -0.3046
      6 C         138.6581  140.0836  165.3193 C.3     1  UNL1        0.1081
      7 C         138.5529  139.5573  163.9186 C.3     1  UNL1        0.0938
      8 C         139.8982  140.1775  167.6003 C.ar    1  UNL1        0.0484
      9 C         138.8308  139.8567  168.6042 C.ar    1  UNL1        0.0146
     10 C         138.9360  140.3830  170.0049 C.ar    1  UNL1        0.0018
     11 C         140.1086  141.2300  170.4017 C.ar    1  UNL1        0.0066
     12 C         141.1761  141.5508  169.3979 C.ar    1  UNL1        0.0307
     13 S         142.4386  142.3546  169.4974 S.2     1  UNL1       -0.0864
     14 C         143.1136  142.3251  168.1583 C.ar    1  UNL1        0.0355
     15 C         142.2683  141.5031  167.2310 C.ar    1  UNL1        0.0087
     16 C         141.0709  141.0245  167.9972 C.ar    1  UNL1        0.0198
     17 C         140.3339  138.6535  160.9118 C.3     1  UNL1        0.0497
     18 C         143.1805  137.7250  161.0979 C.3     1  UNL1        0.0520
     19 C         142.8435  139.1652  161.3479 C.ar    1  UNL1        0.0614
     20 N         143.9298  140.1410  161.6908 N.ar    1  UNL1       -0.2343
     21 C         143.5928  141.5812  161.9407 C.ar    1  UNL1        0.1491
     22 N         142.1695  142.0454  161.8477 N.ar    1  UNL1       -0.2824
     23 C         141.0832  141.0695  161.5047 C.ar    1  UNL1        0.2589
     24 O         139.6599  141.5338  161.4116 O.2     1  UNL1       -0.2672
     25 C         141.4202  139.6294  161.2548 C.ar    1  UNL1        0.0489
     26 C         141.8325  143.4855  162.0976 C.3     1  UNL1        0.1103
     27 C         142.9187  144.4614  162.4405 C.3     1  UNL1        0.0276
     28 C         144.3420  143.9971  162.5336 C.3     1  UNL1        0.0390
     29 C         144.6791  142.5570  162.2837 C.3     1  UNL1        0.1668
     30 O         146.1024  142.0928  162.3768 O.3     1  UNL1       -0.3770
     31 H         146.1477  141.2983  162.9314 H       1  UNL1        0.2109
@<TRIPOS>BOND
     1    18    19    1
     2    19    20   ar
     3    20    21   ar
     4    21    22   ar
     5    22    23   ar
     6    23    24    2
     7    23    25   ar
     8    25    17    1
     9    17     1    1
    10     1     2    1
    11     2     3    1
    12     3     4    1
    13     4     5    1
    14     5     8    1
    15     8     9   ar
    16     9    10   ar
    17    10    11   ar
    18    11    12   ar
    19    12    13   ar
    20    13    14   ar
    21    14    15   ar
    22    15    16   ar
    23     5     6    1
    24     6     7    1
    25    22    26    1
    26    26    27    1
    27    27    28    1
    28    28    29    1
    29    29    30    1
    30    25    19   ar
    31     7     2    1
    32    29    21    1
    33    16     8   ar
    34    16    12   ar
    35    30    31    1
@<TRIPOS>MOLECULE
*****
 31 35 0 0 0
SMALL
GASTEIGER

@<TRIPOS>ATOM
      1 C         138.7696  138.1884  161.9047 C.3     1  UNL1        0.0771
      2 N         139.0294  138.6901  163.2942 N.3     1  UNL1       -0.2695
      3 C         140.0831  138.0403  164.1414 C.3     1  UNL1        0.0938
      4 C         140.3429  138.5420  165.5309 C.3     1  UNL1        0.1081
      5 N         139.5492  139.6935  166.0732 N.pl3   1  UNL1       -0.3046
      6 C         138.4956  140.3432  165.2261 C.3     1  UNL1        0.1081
      7 C         138.2357  139.8415  163.8365 C.3     1  UNL1        0.0938
      8 C         139.8090  140.1952  167.4627 C.ar    1  UNL1        0.0484
      9 C         138.8515  139.8674  168.5698 C.ar    1  UNL1        0.0146
     10 C         139.1114  140.3692  169.9593 C.ar    1  UNL1        0.0018
     11 C         140.3288  141.1987  170.2417 C.ar    1  UNL1        0.0066
     12 C         141.2864  141.5264  169.1347 C.ar    1  UNL1        0.0307
     13 S         142.5610  142.3169  169.1112 S.2     1  UNL1       -0.0864
     14 C         143.0889  142.3037  167.7073 C.ar    1  UNL1        0.0355
     15 C         142.1405  141.5050  166.8630 C.ar    1  UNL1        0.0087
     16 C         141.0265  141.0247  167.7452 C.ar    1  UNL1        0.0198
     17 C         139.5191  138.7724  160.7441 C.3     1  UNL1        0.0497
     18 C         138.4072  141.5384  160.4083 C.3     1  UNL1        0.0520
     19 C         139.8483  141.3493  160.7792 C.ar    1  UNL1        0.0614
     20 N         140.7333  142.5432  160.9823 N.ar    1  UNL1       -0.2343
     21 C         142.1745  142.3541  161.3532 C.ar    1  UNL1        0.1491
     22 N         142.7304  140.9711  161.5211 N.ar    1  UNL1       -0.2824
     23 C         141.8453  139.7772  161.3180 C.ar    1  UNL1        0.2589
     24 O         142.4012  138.3941  161.4859 O.2     1  UNL1       -0.2672
     25 C         140.4042  139.9663  160.9471 C.ar    1  UNL1        0.0489
     26 C         144.1714  140.7819  161.8920 C.3     1  UNL1        0.1103
     27 C         145.0565  141.9758  162.0950 C.3     1  UNL1        0.0276
     28 C         144.5005  143.3588  161.9271 C.3     1  UNL1        0.0390
     29 C         143.0595  143.5480  161.5562 C.3     1  UNL1        0.1668
     30 O         142.5036  144.9310  161.3883 O.3     1  UNL1       -0.3770
     31 H         142.0179  144.9847  160.5504 H       1  UNL1        0.2109
@<TRIPOS>BOND
     1    18    19    1
     2    19    20   ar
     3    20    21   ar
     4    21    22   ar
     5    22    23   ar
     6    23    24    2
     7    23    25   ar
     8    25    17    1
     9    17     1    1
    10     1     2    1
    11     2     3    1
    12     3     4    1
    13     4     5    1
    14     5     8    1
    15     8     9   ar
    16     9    10   ar
    17    10    11   ar
    18    11    12   ar
    19    12    13   ar
    20    13    14   ar
    21    14    15   ar
    22    15    16   ar
    23     5     6    1
    24     6     7    1
    25    22    26    1
    26    26    27    1
    27    27    28    1
    28    28    29    1
    29    29    30    1
    30    25    19   ar
    31     7     2    1
    32    29    21    1
    33    16     8   ar
    34    16    12   ar
    35    30    31    1
@<TRIPOS>MOLECULE
*****
 31 35 0 0 0
SMALL
GASTEIGER

@<TRIPOS>ATOM
      1 C         143.8578  144.6919  163.5880 C.3     1  UNL1        0.0771
      2 N         143.0013  143.9115  164.5405 N.3     1  UNL1       -0.2695
      3 C         141.5070  143.9618  164.4192 C.3     1  UNL1        0.0938
      4 C         140.6505  143.1815  165.3718 C.3     1  UNL1        0.1081
      5 N         141.2883  142.3507  166.4456 N.pl3   1  UNL1       -0.3046
      6 C         142.7825  142.3004  166.5670 C.3     1  UNL1        0.1081
      7 C         143.6390  143.0808  165.6144 C.3     1  UNL1        0.0938
      8 C         140.4318  141.5704  167.3982 C.ar    1  UNL1        0.0484
      9 C         140.4366  141.9076  168.8598 C.ar    1  UNL1        0.0146
     10 C         139.5800  141.1271  169.8124 C.ar    1  UNL1        0.0018
     11 C         138.7187  140.0096  169.3033 C.ar    1  UNL1        0.0066
     12 C         138.7140  139.6723  167.8417 C.ar    1  UNL1        0.0307
     13 S         137.9737  138.6324  167.0540 S.2     1  UNL1       -0.0864
     14 C         138.3727  138.7700  165.6146 C.ar    1  UNL1        0.0355
     15 C         139.3596  139.8951  165.5128 C.ar    1  UNL1        0.0087
     16 C         139.5704  140.4527  166.8892 C.ar    1  UNL1        0.0198
     17 C         144.4246  144.0246  162.3700 C.3     1  UNL1        0.0497
     18 C         145.9099  141.6056  163.3407 C.3     1  UNL1        0.0520
     19 C         144.7017  141.4432  162.4666 C.ar    1  UNL1        0.0614
     20 N         144.2362  140.0712  162.0780 N.ar    1  UNL1       -0.2343
     21 C         143.0280  139.9088  161.2039 C.ar    1  UNL1        0.1491
     22 N         142.2853  141.1183  160.7185 N.ar    1  UNL1       -0.2824
     23 C         142.7509  142.4903  161.1073 C.ar    1  UNL1        0.2589
     24 O         142.0082  143.6998  160.6219 O.2     1  UNL1       -0.2672
     25 C         143.9590  142.6527  161.9813 C.ar    1  UNL1        0.0489
     26 C         141.0772  140.9559  159.8445 C.3     1  UNL1        0.1103
     27 C         140.6117  139.5840  159.4558 C.3     1  UNL1        0.0276
     28 C         141.3543  138.3745  159.9412 C.3     1  UNL1        0.0390
     29 C         142.5625  138.5369  160.8152 C.3     1  UNL1        0.1668
     30 O         143.3051  137.3274  161.3006 O.3     1  UNL1       -0.3770
     31 H         144.2540  137.4428  161.1355 H       1  UNL1        0.2109
@<TRIPOS>BOND
     1    18    19    1
     2    19    20   ar
     3    20    21   ar
     4    21    22   ar
     5    22    23   ar
     6    23    24    2
     7    23    25   ar
     8    25    17    1
     9    17     1    1
    10     1     2    1
    11     2     3    1
    12     3     4    1
    13     4     5    1
    14     5     8    1
    15     8     9   ar
    16     9    10   ar
    17    10    11   ar
    18    11    12   ar
    19    12    13   ar
    20    13    14   ar
    21    14    15   ar
    22    15    16   ar
    23     5     6    1
    24     6     7    1
    25    22    26    1
    26    26    27    1
    27    27    28    1
    28    28    29    1
    29    29    30    1
    30    25    19   ar
    31     7     2    1
    32    29    21    1
    33    16     8   ar
    34    16    12   ar
    35    30    31    1
@<TRIPOS>MOLECULE
*****
 31 35 0 0 0
SMALL
GASTEIGER

@<TRIPOS>ATOM
      1 C         140.9735  137.7677  162.5119 C.3     1  UNL1        0.0771
      2 N         141.1899  138.3018  163.8967 N.3     1  UNL1       -0.2695
      3 C         140.0145  138.5705  164.7891 C.3     1  UNL1        0.0938
      4 C         140.2308  139.1047  166.1740 C.3     1  UNL1        0.1081
      5 N         141.6226  139.3701  166.6665 N.pl3   1  UNL1       -0.3046
      6 C         142.7979  139.1014  165.7742 C.3     1  UNL1        0.1081
      7 C         142.5816  138.5673  164.3893 C.3     1  UNL1        0.0938
      8 C         141.8390  139.9042  168.0514 C.ar    1  UNL1        0.0484
      9 C         142.5962  139.0911  169.0590 C.ar    1  UNL1        0.0146
     10 C         142.8126  139.6253  170.4439 C.ar    1  UNL1        0.0018
     11 C         142.2717  140.9725  170.8211 C.ar    1  UNL1        0.0066
     12 C         141.5145  141.7857  169.8134 C.ar    1  UNL1        0.0307
     13 S         140.8685  143.1370  169.8952 S.2     1  UNL1       -0.0864
     14 C         140.2530  143.4380  168.5609 C.ar    1  UNL1        0.0355
     15 C         140.5184  142.2727  167.6544 C.ar    1  UNL1        0.0087
     16 C         141.2981  141.2515  168.4286 C.ar    1  UNL1        0.0198
     17 C         140.7109  138.7120  161.3764 C.3     1  UNL1        0.0497
     18 C         137.7753  139.3019  161.5616 C.3     1  UNL1        0.0520
     19 C         138.7751  140.4044  161.7486 C.ar    1  UNL1        0.0614
     20 N         138.3071  141.8018  162.0282 N.ar    1  UNL1       -0.2343
     21 C         139.3069  142.9044  162.2153 C.ar    1  UNL1        0.1491
     22 N         140.7747  142.6094  162.1227 N.ar    1  UNL1       -0.2824
     23 C         141.2427  141.2119  161.8431 C.ar    1  UNL1        0.2589
     24 O         142.7105  140.9169  161.7505 O.2     1  UNL1       -0.2672
     25 C         140.2429  140.1095  161.6560 C.ar    1  UNL1        0.0489
     26 C         141.7745  143.7118  162.3097 C.3     1  UNL1        0.1103
     27 C         141.3065  145.1092  162.5893 C.3     1  UNL1        0.0276
     28 C         139.8387  145.4042  162.6819 C.3     1  UNL1        0.0390
     29 C         138.8389  144.3017  162.4949 C.3     1  UNL1        0.1668
     30 O         137.3711  144.5967  162.5874 O.3     1  UNL1       -0.3770
     31 H         136.9154  144.2139  161.8215 H       1  UNL1        0.2109
@<TRIPOS>BOND
     1    18    19    1
     2    19    20   ar
     3    20    21   ar
     4    21    22   ar
     5    22    23   ar
     6    23    24    2
     7    23    25   ar
     8    25    17    1
     9    17     1    1
    10     1     2    1
    11     2     3    1
    12     3     4    1
    13     4     5    1
    14     5     8    1
    15     8     9   ar
    16     9    10   ar
    17    10    11   ar
    18    11    12   ar
    19    12    13   ar
    20    13    14   ar
    21    14    15   ar
    22    15    16   ar
    23     5     6    1
    24     6     7    1
    25    22    26    1
    26    26    27    1
    27    27    28    1
    28    28    29    1
    29    29    30    1
    30    25    19   ar
    31     7     2    1
    32    29    21    1
    33    16     8   ar
    34    16    12   ar
    35    30    31    1
@<TRIPOS>MOLECULE
*****
 31 35 0 0 0
SMALL
GASTEIGER

@<TRIPOS>ATOM
      1 C         140.6076  145.4914  162.7014 C.3     1  UNL1        0.0771
      2 N         140.8693  144.5537  163.8424 N.3     1  UNL1       -0.2695
      3 C         139.7462  144.1416  164.7474 C.3     1  UNL1        0.0938
      4 C         140.0080  143.2038  165.8885 C.3     1  UNL1        0.1081
      5 N         141.3929  142.6780  166.1246 N.pl3   1  UNL1       -0.3046
      6 C         142.5159  143.0900  165.2196 C.3     1  UNL1        0.1081
      7 C         142.2542  144.0279  164.0786 C.3     1  UNL1        0.0938
      8 C         141.6547  141.7402  167.2656 C.ar    1  UNL1        0.0484
      9 C         142.4194  140.4709  167.0329 C.ar    1  UNL1        0.0146
     10 C         142.6811  139.5331  168.1740 C.ar    1  UNL1        0.0018
     11 C         142.1782  139.8646  169.5477 C.ar    1  UNL1        0.0066
     12 C         141.4135  141.1339  169.7804 C.ar    1  UNL1        0.0307
     13 S         140.7984  141.7231  171.0151 S.2     1  UNL1       -0.0864
     14 C         140.1565  143.0250  170.6371 C.ar    1  UNL1        0.0355
     15 C         140.3748  143.2405  169.1688 C.ar    1  UNL1        0.0087
     16 C         141.1517  142.0717  168.6394 C.ar    1  UNL1        0.0198
     17 C         140.2116  144.9487  161.3603 C.3     1  UNL1        0.0497
     18 C         142.6609  143.5796  160.2989 C.3     1  UNL1        0.0520
     19 C         141.4246  142.7828  160.5936 C.ar    1  UNL1        0.0614
     20 N         141.4130  141.3016  160.3577 N.ar    1  UNL1       -0.2343
     21 C         140.1767  140.5048  160.6525 C.ar    1  UNL1        0.1491
     22 N         138.9521  141.1893  161.1832 N.ar    1  UNL1       -0.2824
     23 C         138.9637  142.6707  161.4191 C.ar    1  UNL1        0.2589
     24 O         137.7391  143.3552  161.9499 O.2     1  UNL1       -0.2672
     25 C         140.2000  143.4674  161.1244 C.ar    1  UNL1        0.0489
     26 C         137.7158  140.3927  161.4780 C.3     1  UNL1        0.1103
     27 C         137.7042  138.9114  161.2420 C.3     1  UNL1        0.0276
     28 C         138.9288  138.2269  160.7113 C.3     1  UNL1        0.0390
     29 C         140.1651  139.0235  160.4165 C.3     1  UNL1        0.1668
     30 O         141.3897  138.3390  159.8858 O.3     1  UNL1       -0.3770
     31 H         141.7200  138.8215  159.1118 H       1  UNL1        0.2109
@<TRIPOS>BOND
     1    18    19    1
     2    19    20   ar
     3    20    21   ar
     4    21    22   ar
     5    22    23   ar
     6    23    24    2
     7    23    25   ar
     8    25    17    1
     9    17     1    1
    10     1     2    1
    11     2     3    1
    12     3     4    1
    13     4     5    1
    14     5     8    1
    15     8     9   ar
    16     9    10   ar
    17    10    11   ar
    18    11    12   ar
    19    12    13   ar
    20    13    14   ar
    21    14    15   ar
    22    15    16   ar
    23     5     6    1
    24     6     7    1
    25    22    26    1
    26    26    27    1
    27    27    28    1
    28    28    29    1
    29    29    30    1
    30    25    19   ar
    31     7     2    1
    32    29    21    1
    33    16     8   ar
    34    16    12   ar
    35    30    31    1
@<TRIPOS>MOLECULE
*****
 31 35 0 0 0
SMALL
GASTEIGER

@<TRIPOS>ATOM
      1 C         144.0861  143.8391  164.7407 C.3     1  UNL1        0.0771
      2 N         143.3478  143.9519  163.4399 N.3     1  UNL1       -0.2695
      3 C         143.9191  143.3356  162.1973 C.3     1  UNL1        0.0938
      4 C         143.1808  143.4483  160.8965 C.3     1  UNL1        0.1081
      5 N         141.8711  144.1773  160.8382 N.pl3   1  UNL1       -0.3046
      6 C         141.2998  144.7935  162.0807 C.3     1  UNL1        0.1081
      7 C         142.0381  144.6808  163.3816 C.3     1  UNL1        0.0938
      8 C         141.1328  144.2900  159.5374 C.ar    1  UNL1        0.0484
      9 C         141.4705  145.3910  158.5762 C.ar    1  UNL1        0.0146
     10 C         140.7321  145.5037  157.2754 C.ar    1  UNL1        0.0018
     11 C         139.6560  144.5155  156.9358 C.ar    1  UNL1        0.0066
     12 C         139.3183  143.4145  157.8969 C.ar    1  UNL1        0.0307
     13 S         138.3137  142.3022  157.8362 S.2     1  UNL1       -0.0864
     14 C         138.4313  141.5021  159.0995 C.ar    1  UNL1        0.0355
     15 C         139.5084  142.1198  159.9410 C.ar    1  UNL1        0.0087
     16 C         140.0566  143.3018  159.1977 C.ar    1  UNL1        0.0198
     17 C         144.0078  142.5724  165.5401 C.3     1  UNL1        0.0497
     18 C         145.2752  140.3249  164.0096 C.3     1  UNL1        0.0520
     19 C         143.8014  140.3052  164.2880 C.ar    1  UNL1        0.0614
     20 N         142.9614  139.1619  163.8013 N.ar    1  UNL1       -0.2343
     21 C         141.4875  139.1422  164.0798 C.ar    1  UNL1        0.1491
     22 N         140.8538  140.2659  164.8450 N.ar    1  UNL1       -0.2824
     23 C         141.6939  141.4093  165.3318 C.ar    1  UNL1        0.2589
     24 O         141.0602  142.5330  166.0971 O.2     1  UNL1       -0.2672
     25 C         143.1677  141.4290  165.0533 C.ar    1  UNL1        0.0489
     26 C         139.3800  140.2463  165.1235 C.3     1  UNL1        0.1103
     27 C         138.5400  139.1029  164.6368 C.3     1  UNL1        0.0276
     28 C         139.1737  137.9792  163.8715 C.3     1  UNL1        0.0390
     29 C         140.6475  137.9988  163.5930 C.3     1  UNL1        0.1668
     30 O         141.2812  136.8751  162.8277 O.3     1  UNL1       -0.3770
     31 H         141.8351  137.2384  162.1192 H       1  UNL1        0.2109
@<TRIPOS>BOND
     1    18    19    1
     2    19    20   ar
     3    20    21   ar
     4    21    22   ar
     5    22    23   ar
     6    23    24    2
     7    23    25   ar
     8    25    17    1
     9    17     1    1
    10     1     2    1
    11     2     3    1
    12     3     4    1
    13     4     5    1
    14     5     8    1
    15     8     9   ar
    16     9    10   ar
    17    10    11   ar
    18    11    12   ar
    19    12    13   ar
    20    13    14   ar
    21    14    15   ar
    22    15    16   ar
    23     5     6    1
    24     6     7    1
    25    22    26    1
    26    26    27    1
    27    27    28    1
    28    28    29    1
    29    29    30    1
    30    25    19   ar
    31     7     2    1
    32    29    21    1
    33    16     8   ar
    34    16    12   ar
    35    30    31    1
@<TRIPOS>MOLECULE
*****
 31 35 0 0 0
SMALL
GASTEIGER

@<TRIPOS>ATOM
      1 C         139.3511  137.7712  163.9337 C.3     1  UNL1        0.0771
      2 N         140.0831  137.9673  162.6392 N.3     1  UNL1       -0.2695
      3 C         141.5587  137.7079  162.5652 C.3     1  UNL1        0.0938
      4 C         142.2907  137.9039  161.2708 C.3     1  UNL1        0.1081
      5 N         141.5472  138.3593  160.0502 N.pl3   1  UNL1       -0.3046
      6 C         140.0717  138.6187  160.1241 C.3     1  UNL1        0.1081
      7 C         139.3396  138.4227  161.4187 C.3     1  UNL1        0.0938
      8 C         142.2792  138.5554  158.7557 C.ar    1  UNL1        0.0484
      9 C         142.1955  137.5120  157.6814 C.ar    1  UNL1        0.0146
     10 C         142.9276  137.7081  156.3868 C.ar    1  UNL1        0.0018
     11 C         143.7432  138.9475  156.1667 C.ar    1  UNL1        0.0066
     12 C         143.8268  139.9909  157.2411 C.ar    1  UNL1        0.0307
     13 S         144.5468  141.3050  157.3102 S.2     1  UNL1       -0.0864
     14 C         144.2598  141.9211  158.6474 C.ar    1  UNL1        0.0355
     15 C         143.3624  140.9878  159.4047 C.ar    1  UNL1        0.0087
     16 C         143.0948  139.7949  158.5356 C.ar    1  UNL1        0.0198
     17 C         138.6751  138.9346  164.5966 C.3     1  UNL1        0.0497
     18 C         137.3389  138.1707  167.1717 C.3     1  UNL1        0.0520
     19 C         138.5304  139.0818  167.1865 C.ar    1  UNL1        0.0614
     20 N         139.0538  139.6109  168.4888 N.ar    1  UNL1       -0.2343
     21 C         140.2454  140.5221  168.5036 C.ar    1  UNL1        0.1491
     22 N         140.9135  140.9040  167.2160 N.ar    1  UNL1       -0.2824
     23 C         140.3900  140.3748  165.9137 C.ar    1  UNL1        0.2589
     24 O         141.0581  140.7568  164.6262 O.2     1  UNL1       -0.2672
     25 C         139.1985  139.4638  165.8989 C.ar    1  UNL1        0.0489
     26 C         142.1049  141.8151  167.2308 C.3     1  UNL1        0.1103
     27 C         142.6283  142.3442  168.5331 C.3     1  UNL1        0.0276
     28 C         141.9602  141.9622  169.8207 C.3     1  UNL1        0.0390
     29 C         140.7688  141.0512  169.8059 C.3     1  UNL1        0.1668
     30 O         140.1007  140.6692  171.0934 O.3     1  UNL1       -0.3770
     31 H         139.1432  140.8021  171.0127 H       1  UNL1        0.2109
@<TRIPOS>BOND
     1    18    19    1
     2    19    20   ar
     3    20    21   ar
     4    21    22   ar
     5    22    23   ar
     6    23    24    2
     7    23    25   ar
     8    25    17    1
     9    17     1    1
    10     1     2    1
    11     2     3    1
    12     3     4    1
    13     4     5    1
    14     5     8    1
    15     8     9   ar
    16     9    10   ar
    17    10    11   ar
    18    11    12   ar
    19    12    13   ar
    20    13    14   ar
    21    14    15   ar
    22    15    16   ar
    23     5     6    1
    24     6     7    1
    25    22    26    1
    26    26    27    1
    27    27    28    1
    28    28    29    1
    29    29    30    1
    30    25    19   ar
    31     7     2    1
    32    29    21    1
    33    16     8   ar
    34    16    12   ar
    35    30    31    1
@<TRIPOS>MOLECULE
*****
 31 35 0 0 0
SMALL
GASTEIGER

@<TRIPOS>ATOM
      1 C         142.6843  138.4976  161.9561 C.3     1  UNL1        0.0771
      2 N         142.5661  138.8334  163.4132 N.3     1  UNL1       -0.2695
      3 C         143.6877  139.5423  164.1129 C.3     1  UNL1        0.0938
      4 C         143.5695  139.8781  165.5700 C.3     1  UNL1        0.1081
      5 N         142.3298  139.5051  166.3275 N.pl3   1  UNL1       -0.3046
      6 C         141.2082  138.7962  165.6279 C.3     1  UNL1        0.1081
      7 C         141.3263  138.4603  164.1707 C.3     1  UNL1        0.0938
      8 C         142.2116  139.8409  167.7846 C.ar    1  UNL1        0.0484
      9 C         142.7879  138.9171  168.8163 C.ar    1  UNL1        0.0146
     10 C         142.6697  139.2530  170.2735 C.ar    1  UNL1        0.0018
     11 C         141.9752  140.5126  170.6989 C.ar    1  UNL1        0.0066
     12 C         141.3989  141.4364  169.6671 C.ar    1  UNL1        0.0307
     13 S         140.6645  142.7390  169.7845 S.2     1  UNL1       -0.0864
     14 C         140.3289  143.2083  168.3999 C.ar    1  UNL1        0.0355
     15 C         140.8558  142.1956  167.4268 C.ar    1  UNL1        0.0087
     16 C         141.5170  141.1006  168.2100 C.ar    1  UNL1        0.0198
     17 C         142.2180  139.4773  160.9204 C.3     1  UNL1        0.0497
     18 C         144.0777  141.8246  161.0996 C.3     1  UNL1        0.0520
     19 C         142.6240  141.9927  161.4289 C.ar    1  UNL1        0.0614
     20 N         142.1001  143.3343  161.8478 N.ar    1  UNL1       -0.2343
     21 C         140.6463  143.5024  162.1771 C.ar    1  UNL1        0.1491
     22 N         139.7165  142.3288  162.0876 N.ar    1  UNL1       -0.2824
     23 C         140.2404  140.9871  161.6686 C.ar    1  UNL1        0.2589
     24 O         139.3106  139.8135  161.5791 O.2     1  UNL1       -0.2672
     25 C         141.6941  140.8191  161.3393 C.ar    1  UNL1        0.0489
     26 C         138.2628  142.4968  162.4169 C.3     1  UNL1        0.1103
     27 C         137.7389  143.8385  162.8357 C.3     1  UNL1        0.0276
     28 C         138.6688  145.0121  162.9253 C.3     1  UNL1        0.0390
     29 C         140.1225  144.8441  162.5960 C.3     1  UNL1        0.1668
     30 O         141.0523  146.0177  162.6855 O.3     1  UNL1       -0.3770
     31 H         141.8406  145.7677  163.1926 H       1  UNL1        0.2109
@<TRIPOS>BOND
     1    18    19    1
     2    19    20   ar
     3    20    21   ar
     4    21    22   ar
     5    22    23   ar
     6    23    24    2
     7    23    25   ar
     8    25    17    1
     9    17     1    1
    10     1     2    1
    11     2     3    1
    12     3     4    1
    13     4     5    1
    14     5     8    1
    15     8     9   ar
    16     9    10   ar
    17    10    11   ar
    18    11    12   ar
    19    12    13   ar
    20    13    14   ar
    21    14    15   ar
    22    15    16   ar
    23     5     6    1
    24     6     7    1
    25    22    26    1
    26    26    27    1
    27    27    28    1
    28    28    29    1
    29    29    30    1
    30    25    19   ar
    31     7     2    1
    32    29    21    1
    33    16     8   ar
    34    16    12   ar
    35    30    31    1
@<TRIPOS>MOLECULE
*****
 31 35 0 0 0
SMALL
GASTEIGER

@<TRIPOS>ATOM
      1 C         139.5767  137.9779  162.4130 C.3     1  UNL1        0.0771
      2 N         139.7234  138.5343  163.7982 N.3     1  UNL1       -0.2695
      3 C         141.0746  138.5824  164.4479 C.3     1  UNL1        0.0938
      4 C         141.2213  139.1388  165.8331 C.3     1  UNL1        0.1081
      5 N         140.0169  139.6471  166.5687 N.pl3   1  UNL1       -0.3046
      6 C         138.6658  139.5990  165.9190 C.3     1  UNL1        0.1081
      7 C         138.5190  139.0426  164.5337 C.3     1  UNL1        0.0938
      8 C         140.1636  140.2035  167.9539 C.ar    1  UNL1        0.0484
      9 C         139.1272  139.9042  168.9961 C.ar    1  UNL1        0.0146
     10 C         139.2740  140.4606  170.3813 C.ar    1  UNL1        0.0018
     11 C         140.4572  141.3164  170.7244 C.ar    1  UNL1        0.0066
     12 C         141.4936  141.6157  169.6822 C.ar    1  UNL1        0.0307
     13 S         142.7578  142.4219  169.7263 S.2     1  UNL1       -0.0864
     14 C         143.3923  142.3637  168.3684 C.ar    1  UNL1        0.0355
     15 C         142.5203  141.5216  167.4850 C.ar    1  UNL1        0.0087
     16 C         141.3469  141.0593  168.2970 C.ar    1  UNL1        0.0198
     17 C         139.6395  138.8935  161.2265 C.3     1  UNL1        0.0497
     18 C         142.5362  139.5793  160.8542 C.3     1  UNL1        0.0520
     19 C         141.5510  140.6531  161.2098 C.ar    1  UNL1        0.0614
     20 N         142.0141  142.0696  161.3793 N.ar    1  UNL1       -0.2343
     21 C         141.0289  143.1434  161.7349 C.ar    1  UNL1        0.1491
     22 N         139.5805  142.8005  161.9211 N.ar    1  UNL1       -0.2824
     23 C         139.1174  141.3838  161.7516 C.ar    1  UNL1        0.2589
     24 O         137.6690  141.0409  161.9377 O.2     1  UNL1       -0.2672
     25 C         140.1026  140.3101  161.3960 C.ar    1  UNL1        0.0489
     26 C         138.5952  143.8741  162.2767 C.3     1  UNL1        0.1103
     27 C         139.0584  145.2907  162.4461 C.3     1  UNL1        0.0276
     28 C         140.5067  145.6336  162.2600 C.3     1  UNL1        0.0390
     29 C         141.4920  144.5600  161.9044 C.3     1  UNL1        0.1668
     30 O         142.9403  144.9029  161.7183 O.3     1  UNL1       -0.3770
     31 H         143.4871  144.2848  162.2282 H       1  UNL1        0.2109
@<TRIPOS>BOND
     1    18    19    1
     2    19    20   ar
     3    20    21   ar
     4    21    22   ar
     5    22    23   ar
     6    23    24    2
     7    23    25   ar
     8    25    17    1
     9    17     1    1
    10     1     2    1
    11     2     3    1
    12     3     4    1
    13     4     5    1
    14     5     8    1
    15     8     9   ar
    16     9    10   ar
    17    10    11   ar
    18    11    12   ar
    19    12    13   ar
    20    13    14   ar
    21    14    15   ar
    22    15    16   ar
    23     5     6    1
    24     6     7    1
    25    22    26    1
    26    26    27    1
    27    27    28    1
    28    28    29    1
    29    29    30    1
    30    25    19   ar
    31     7     2    1
    32    29    21    1
    33    16     8   ar
    34    16    12   ar
    35    30    31    1
