@<TRIPOS>MOLECULE
*****
 31 35 0 0 0
SMALL
GASTEIGER

@<TRIPOS>ATOM
      1 C         143.6383  139.5445  162.3026 C.3     1  UNL1        0.0181
      2 C         143.6097  139.6985  160.8108 C.3     1  UNL1        0.0036
      3 C         143.4476  139.5688  159.3252 C.3     1  UNL1        0.0227
      4 C         142.8028  138.2442  159.0431 C.3     1  UNL1        0.0884
      5 C         142.5665  137.5551  160.3543 C.3     1  UNL1        0.0227
      6 C         143.0651  138.4539  161.4468 C.3     1  UNL1        0.0036
      7 N         142.4554  137.7035  157.6877 N.ar    1  UNL1       -0.2964
      8 C         141.7325  138.4439  156.6019 C.ar    1  UNL1        0.1796
      9 N         141.6003  137.5254  155.4234 N.ar    1  UNL1       -0.2223
     10 C         142.2415  136.2174  155.7809 C.ar    1  UNL1        0.1178
     11 C         142.4123  134.9403  155.0129 C.ar    1  UNL1        0.0341
     12 C         143.1117  133.7733  155.6444 C.ar    1  UNL1        0.0892
     13 C         143.6403  133.8833  157.0439 C.ar    1  UNL1        0.1108
     14 N         143.4694  135.1604  157.8119 N.ar    1  UNL1       -0.2245
     15 C         142.7700  136.3274  157.1804 C.ar    1  UNL1        0.1627
     16 C         143.2826  132.4961  154.8764 C.1     1  UNL1        0.1020
     17 N         143.4535  131.2190  154.1085 N.1     1  UNL1       -0.1908
     18 C         143.9857  140.0851  163.6579 C.3     1  UNL1        0.0718
     19 N         142.9078  140.2992  164.6788 N.am    1  UNL1       -0.3025
     20 C         142.8140  139.3944  165.8715 C.2     1  UNL1        0.2458
     21 O         143.7981  138.2755  166.0433 O.2     1  UNL1       -0.2701
     22 H         142.2619  141.0336  164.5661 H       1  UNL1        0.1497
     23 C         141.7360  139.6086  166.8925 C.ar    1  UNL1        0.0534
     24 C         142.0981  139.8160  168.3332 C.ar    1  UNL1        0.0054
     25 C         141.0203  140.0301  169.3541 C.ar    1  UNL1        0.0115
     26 C         139.5802  140.0368  168.9343 C.ar    1  UNL1        0.0577
     27 CL        138.5024  140.2510  169.9552 Cl      1  UNL1       -0.0822
     28 C         139.2181  139.8294  167.4935 C.ar    1  UNL1        0.0115
     29 C         140.2960  139.6153  166.4726 C.ar    1  UNL1        0.0054
     30 C         145.9797  141.7503  163.6256 C.3     1  UNL1        0.0017
     31 C         145.4110  140.4117  163.9924 C.3     1  UNL1        0.0196
@<TRIPOS>BOND
     1    30    31    1
     2    31    18    1
     3    18    19    1
     4    19    20   am
     5    20    21    2
     6    20    23    1
     7    23    24   ar
     8    24    25   ar
     9    25    26   ar
    10    26    27    1
    11    26    28   ar
    12    28    29   ar
    13     1    18    1
    14     1     2    1
    15     2     3    1
    16     3     4    1
    17     4     7    1
    18     7     8   ar
    19     8     9   ar
    20     9    10   ar
    21    10    11   ar
    22    11    12   ar
    23    12    16    1
    24    16    17    3
    25    12    13   ar
    26    13    14   ar
    27    14    15   ar
    28     4     5    1
    29     6     5    1
    30    29    23   ar
    31     6     1    1
    32     6     2    1
    33    15     7   ar
    34    15    10   ar
    35    19    22    1
@<TRIPOS>MOLECULE
*****
 31 35 0 0 0
SMALL
GASTEIGER

@<TRIPOS>ATOM
      1 C         140.5847  144.7635  158.2295 C.3     1  UNL1        0.0181
      2 C         140.2810  145.0645  159.6673 C.3     1  UNL1        0.0036
      3 C         140.0943  145.0789  161.1556 C.3     1  UNL1        0.0227
      4 C         140.5905  143.7714  161.6977 C.3     1  UNL1        0.0884
      5 C         141.0839  142.9487  160.5445 C.3     1  UNL1        0.0227
      6 C         140.8926  143.7479  159.2897 C.3     1  UNL1        0.0036
      7 N         140.5930  143.3588  163.1399 N.ar    1  UNL1       -0.2964
      8 C         141.3625  144.0198  164.2447 C.ar    1  UNL1        0.1796
      9 N         141.0714  143.2823  165.5180 N.ar    1  UNL1       -0.2223
     10 C         140.1220  142.1654  165.2001 C.ar    1  UNL1        0.1178
     11 C         139.4885  141.1114  166.0590 C.ar    1  UNL1        0.0341
     12 C         138.5593  140.1047  165.4482 C.ar    1  UNL1        0.0892
     13 C         138.2636  140.1520  163.9784 C.ar    1  UNL1        0.1108
     14 N         138.8971  141.2060  163.1194 N.ar    1  UNL1       -0.2245
     15 C         139.8263  142.2126  163.7303 C.ar    1  UNL1        0.1627
     16 C         137.9258  139.0507  166.3071 C.1     1  UNL1        0.1020
     17 N         137.2923  137.9968  167.1661 N.1     1  UNL1       -0.1908
     18 C         140.5823  145.1760  156.7874 C.3     1  UNL1        0.0718
     19 N         140.4682  146.6265  156.4224 N.am    1  UNL1       -0.3025
     20 C         139.2610  147.1209  155.6820 C.2     1  UNL1        0.2458
     21 O         138.1678  146.1649  155.3067 O.2     1  UNL1       -0.2701
     22 H         141.1857  147.2539  156.6688 H       1  UNL1        0.1497
     23 C         139.1470  148.5714  155.3170 C.ar    1  UNL1        0.0534
     24 C         139.7373  149.0699  154.0314 C.ar    1  UNL1        0.0054
     25 C         139.6233  150.5203  153.6664 C.ar    1  UNL1        0.0115
     26 C         138.9189  151.4722  154.5871 C.ar    1  UNL1        0.0577
     27 CL        138.8049  152.9227  154.2221 Cl      1  UNL1       -0.0822
     28 C         138.3286  150.9737  155.8728 C.ar    1  UNL1        0.0115
     29 C         138.4426  149.5233  156.2378 C.ar    1  UNL1        0.0054
     30 C         139.7369  142.9836  155.6790 C.3     1  UNL1        0.0017
     31 C         140.6939  144.1381  155.7101 C.3     1  UNL1        0.0196
@<TRIPOS>BOND
     1    30    31    1
     2    31    18    1
     3    18    19    1
     4    19    20   am
     5    20    21    2
     6    20    23    1
     7    23    24   ar
     8    24    25   ar
     9    25    26   ar
    10    26    27    1
    11    26    28   ar
    12    28    29   ar
    13     1    18    1
    14     1     2    1
    15     2     3    1
    16     3     4    1
    17     4     7    1
    18     7     8   ar
    19     8     9   ar
    20     9    10   ar
    21    10    11   ar
    22    11    12   ar
    23    12    16    1
    24    16    17    3
    25    12    13   ar
    26    13    14   ar
    27    14    15   ar
    28     4     5    1
    29     6     5    1
    30    29    23   ar
    31     6     1    1
    32     6     2    1
    33    15     7   ar
    34    15    10   ar
    35    19    22    1
@<TRIPOS>MOLECULE
*****
 31 35 0 0 0
SMALL
GASTEIGER

@<TRIPOS>ATOM
      1 C         142.1781  138.8025  160.6229 C.3     1  UNL1        0.0181
      2 C         141.3614  139.5459  161.6381 C.3     1  UNL1        0.0036
      3 C         140.5505  140.0168  162.8089 C.3     1  UNL1        0.0227
      4 C         140.4072  138.8700  163.7650 C.3     1  UNL1        0.0884
      5 C         141.1297  137.6902  163.1853 C.3     1  UNL1        0.0227
      6 C         141.7193  138.1079  161.8708 C.3     1  UNL1        0.0036
      7 N         139.6709  138.8981  165.0716 N.ar    1  UNL1       -0.2964
      8 C         138.3853  138.1872  165.3745 C.ar    1  UNL1        0.1796
      9 N         138.0108  138.4917  166.7947 N.ar    1  UNL1       -0.2223
     10 C         139.0650  139.3908  167.3695 C.ar    1  UNL1        0.1178
     11 C         139.2232  140.0132  168.7251 C.ar    1  UNL1        0.0341
     12 C         140.4074  140.8868  169.0156 C.ar    1  UNL1        0.0892
     13 C         141.4334  141.1380  167.9506 C.ar    1  UNL1        0.1108
     14 N         141.2752  140.5155  166.5951 N.ar    1  UNL1       -0.2245
     15 C         140.0910  139.6420  166.3046 C.ar    1  UNL1        0.1627
     16 C         140.5656  141.5093  170.3712 C.1     1  UNL1        0.1020
     17 N         140.7239  142.1317  171.7267 N.1     1  UNL1       -0.1908
     18 C         142.9143  138.7744  159.3165 C.3     1  UNL1        0.0718
     19 N         143.0522  137.4861  158.5608 N.am    1  UNL1       -0.3025
     20 C         142.2420  137.2541  157.3199 C.2     1  UNL1        0.2458
     21 O         141.2940  138.3104  156.8347 O.2     1  UNL1       -0.2701
     22 H         143.6744  136.7928  158.8792 H       1  UNL1        0.1497
     23 C         142.3798  135.9657  156.5641 C.ar    1  UNL1        0.0534
     24 C         143.5526  135.0668  156.8218 C.ar    1  UNL1        0.0054
     25 C         143.6904  133.7784  156.0661 C.ar    1  UNL1        0.0115
     26 C         142.6555  133.3890  155.0526 C.ar    1  UNL1        0.0577
     27 CL        142.7933  132.1006  154.2969 Cl      1  UNL1       -0.0822
     28 C         141.4827  134.2879  154.7949 C.ar    1  UNL1        0.0115
     29 C         141.3448  135.5763  155.5506 C.ar    1  UNL1        0.0054
     30 C         142.6320  141.2057  158.4452 C.3     1  UNL1        0.0017
     31 C         143.5129  140.0348  158.7656 C.3     1  UNL1        0.0196
@<TRIPOS>BOND
     1    30    31    1
     2    31    18    1
     3    18    19    1
     4    19    20   am
     5    20    21    2
     6    20    23    1
     7    23    24   ar
     8    24    25   ar
     9    25    26   ar
    10    26    27    1
    11    26    28   ar
    12    28    29   ar
    13     1    18    1
    14     1     2    1
    15     2     3    1
    16     3     4    1
    17     4     7    1
    18     7     8   ar
    19     8     9   ar
    20     9    10   ar
    21    10    11   ar
    22    11    12   ar
    23    12    16    1
    24    16    17    3
    25    12    13   ar
    26    13    14   ar
    27    14    15   ar
    28     4     5    1
    29     6     5    1
    30    29    23   ar
    31     6     1    1
    32     6     2    1
    33    15     7   ar
    34    15    10   ar
    35    19    22    1
@<TRIPOS>MOLECULE
*****
 31 35 0 0 0
SMALL
GASTEIGER

@<TRIPOS>ATOM
      1 C         142.6707  137.5224  157.6509 C.3     1  UNL1        0.0181
      2 C         141.5234  138.2786  158.2528 C.3     1  UNL1        0.0036
      3 C         140.5613  139.0491  159.1076 C.3     1  UNL1        0.0227
      4 C         141.2061  139.2757  160.4427 C.3     1  UNL1        0.0884
      5 C         142.5668  138.6453  160.4133 C.3     1  UNL1        0.0227
      6 C         142.7630  138.0290  159.0598 C.3     1  UNL1        0.0036
      7 N         140.5971  140.0048  161.6036 N.ar    1  UNL1       -0.2964
      8 C         140.5410  141.4935  161.7786 C.ar    1  UNL1        0.1796
      9 N         139.8466  141.7818  163.0765 N.ar    1  UNL1       -0.2223
     10 C         139.4735  140.4713  163.7037 C.ar    1  UNL1        0.1178
     11 C         138.7713  140.1362  164.9861 C.ar    1  UNL1        0.0341
     12 C         138.5330  138.7028  165.3583 C.ar    1  UNL1        0.0892
     13 C         138.9969  137.6045  164.4480 C.ar    1  UNL1        0.1108
     14 N         139.6990  137.9396  163.1656 N.ar    1  UNL1       -0.2245
     15 C         139.9374  139.3730  162.7935 C.ar    1  UNL1        0.1627
     16 C         137.8308  138.3676  166.6407 C.1     1  UNL1        0.1020
     17 N         137.1287  138.0325  167.9231 N.1     1  UNL1       -0.1908
     18 C         143.2796  136.7935  156.4901 C.3     1  UNL1        0.0718
     19 N         143.3045  135.2937  156.4759 N.am    1  UNL1       -0.3025
     20 C         142.1448  134.5297  155.9092 C.2     1  UNL1        0.2458
     21 O         140.9600  135.2653  155.3567 O.2     1  UNL1       -0.2701
     22 H         144.0821  134.8109  156.8385 H       1  UNL1        0.1497
     23 C         142.1697  133.0299  155.8950 C.ar    1  UNL1        0.0534
     24 C         143.1012  132.2866  156.8059 C.ar    1  UNL1        0.0054
     25 C         143.1262  130.7869  156.7917 C.ar    1  UNL1        0.0115
     26 C         142.2196  130.0305  155.8665 C.ar    1  UNL1        0.0577
     27 CL        142.2446  128.5308  155.8524 Cl      1  UNL1       -0.0822
     28 C         141.2881  130.7737  154.9556 C.ar    1  UNL1        0.0115
     29 C         141.2631  132.2734  154.9698 C.ar    1  UNL1        0.0054
     30 C         142.9762  138.0469  154.2347 C.3     1  UNL1        0.0017
     31 C         143.8637  137.5641  155.3433 C.3     1  UNL1        0.0196
@<TRIPOS>BOND
     1    30    31    1
     2    31    18    1
     3    18    19    1
     4    19    20   am
     5    20    21    2
     6    20    23    1
     7    23    24   ar
     8    24    25   ar
     9    25    26   ar
    10    26    27    1
    11    26    28   ar
    12    28    29   ar
    13     1    18    1
    14     1     2    1
    15     2     3    1
    16     3     4    1
    17     4     7    1
    18     7     8   ar
    19     8     9   ar
    20     9    10   ar
    21    10    11   ar
    22    11    12   ar
    23    12    16    1
    24    16    17    3
    25    12    13   ar
    26    13    14   ar
    27    14    15   ar
    28     4     5    1
    29     6     5    1
    30    29    23   ar
    31     6     1    1
    32     6     2    1
    33    15     7   ar
    34    15    10   ar
    35    19    22    1
@<TRIPOS>MOLECULE
*****
 31 35 0 0 0
SMALL
GASTEIGER

@<TRIPOS>ATOM
      1 C         142.9212  139.3309  159.9902 C.3     1  UNL1        0.0181
      2 C         143.6516  139.3228  161.3004 C.3     1  UNL1        0.0036
      3 C         144.0939  139.3313  162.7337 C.3     1  UNL1        0.0227
      4 C         142.8693  139.4091  163.5963 C.3     1  UNL1        0.0884
      5 C         141.6700  139.4487  162.6962 C.3     1  UNL1        0.0227
      6 C         142.1535  139.3953  161.2773 C.3     1  UNL1        0.0036
      7 N         142.8477  139.4416  165.0958 N.ar    1  UNL1       -0.2964
      8 C         143.4658  138.4246  166.0088 C.ar    1  UNL1        0.1796
      9 N         143.2042  138.8513  167.4228 N.ar    1  UNL1       -0.2223
     10 C         142.4244  140.1321  167.3837 C.ar    1  UNL1        0.1178
     11 C         141.8866  141.0133  168.4719 C.ar    1  UNL1        0.0341
     12 C         141.1284  142.2593  168.1220 C.ar    1  UNL1        0.0892
     13 C         140.9080  142.6241  166.6838 C.ar    1  UNL1        0.1108
     14 N         141.4459  141.7429  165.5956 N.ar    1  UNL1       -0.2245
     15 C         142.2041  140.4969  165.9456 C.ar    1  UNL1        0.1627
     16 C         140.5905  143.1405  169.2102 C.1     1  UNL1        0.1020
     17 N         140.0526  144.0218  170.2983 N.1     1  UNL1       -0.1908
     18 C         142.9429  139.2984  158.4908 C.3     1  UNL1        0.0718
     19 N         143.2305  138.0134  157.7725 N.am    1  UNL1       -0.3025
     20 C         142.1014  137.1886  157.2296 C.2     1  UNL1        0.2458
     21 O         140.6846  137.6488  157.4049 O.2     1  UNL1       -0.2701
     22 H         144.1605  137.7113  157.6574 H       1  UNL1        0.1497
     23 C         142.3891  135.9035  156.5113 C.ar    1  UNL1        0.0534
     24 C         141.6755  135.5837  155.2314 C.ar    1  UNL1        0.0054
     25 C         141.9631  134.2986  154.5131 C.ar    1  UNL1        0.0115
     26 C         142.9646  133.3334  155.0748 C.ar    1  UNL1        0.0577
     27 CL        143.2523  132.0484  154.3565 Cl      1  UNL1       -0.0822
     28 C         143.6783  133.6533  156.3547 C.ar    1  UNL1        0.0115
     29 C         143.3906  134.9383  157.0730 C.ar    1  UNL1        0.0054
     30 C         143.0010  140.6052  156.2460 C.3     1  UNL1        0.0017
     31 C         142.6768  140.5510  157.7094 C.3     1  UNL1        0.0196
@<TRIPOS>BOND
     1    30    31    1
     2    31    18    1
     3    18    19    1
     4    19    20   am
     5    20    21    2
     6    20    23    1
     7    23    24   ar
     8    24    25   ar
     9    25    26   ar
    10    26    27    1
    11    26    28   ar
    12    28    29   ar
    13     1    18    1
    14     1     2    1
    15     2     3    1
    16     3     4    1
    17     4     7    1
    18     7     8   ar
    19     8     9   ar
    20     9    10   ar
    21    10    11   ar
    22    11    12   ar
    23    12    16    1
    24    16    17    3
    25    12    13   ar
    26    13    14   ar
    27    14    15   ar
    28     4     5    1
    29     6     5    1
    30    29    23   ar
    31     6     1    1
    32     6     2    1
    33    15     7   ar
    34    15    10   ar
    35    19    22    1
@<TRIPOS>MOLECULE
*****
 31 35 0 0 0
SMALL
GASTEIGER

@<TRIPOS>ATOM
      1 C         143.5215  139.6394  161.7585 C.3     1  UNL1        0.0181
      2 C         143.2453  138.3742  161.0013 C.3     1  UNL1        0.0036
      3 C         142.9653  137.2985  159.9941 C.3     1  UNL1        0.0227
      4 C         142.8901  137.9395  158.6401 C.3     1  UNL1        0.0884
      5 C         143.1236  139.4114  158.8104 C.3     1  UNL1        0.0227
      6 C         143.3431  139.6801  160.2697 C.3     1  UNL1        0.0036
      7 N         142.6276  137.2327  157.3433 N.ar    1  UNL1       -0.2964
      8 C         141.9237  137.8101  156.1512 C.ar    1  UNL1        0.1796
      9 N         141.8839  136.7586  155.0822 N.ar    1  UNL1       -0.2223
     10 C         142.5632  135.5314  155.6136 C.ar    1  UNL1        0.1178
     11 C         142.8227  134.1849  155.0055 C.ar    1  UNL1        0.0341
     12 C         143.5417  133.1315  155.7949 C.ar    1  UNL1        0.0892
     13 C         144.0013  133.4245  157.1924 C.ar    1  UNL1        0.1108
     14 N         143.7419  134.7709  157.8005 N.ar    1  UNL1       -0.2245
     15 C         143.0228  135.8243  157.0111 C.ar    1  UNL1        0.1627
     16 C         143.8011  131.7850  155.1869 C.1     1  UNL1        0.1020
     17 N         144.0605  130.4385  154.5789 N.1     1  UNL1       -0.1908
     18 C         143.7841  140.3461  163.0552 C.3     1  UNL1        0.0718
     19 N         142.6712  141.0696  163.7537 N.am    1  UNL1       -0.3025
     20 C         142.3098  142.4660  163.3421 C.2     1  UNL1        0.2458
     21 O         143.0612  143.1389  162.2319 O.2     1  UNL1       -0.2701
     22 H         142.1780  140.6280  164.4824 H       1  UNL1        0.1497
     23 C         141.1968  143.1896  164.0407 C.ar    1  UNL1        0.0534
     24 C         140.4634  144.2939  163.3391 C.ar    1  UNL1        0.0054
     25 C         139.3505  145.0174  164.0376 C.ar    1  UNL1        0.0115
     26 C         138.9710  144.6365  165.4379 C.ar    1  UNL1        0.0577
     27 CL        137.8582  145.3600  166.1365 Cl      1  UNL1       -0.0822
     28 C         139.7044  143.5321  166.1397 C.ar    1  UNL1        0.0115
     29 C         140.8173  142.8086  165.4411 C.ar    1  UNL1        0.0054
     30 C         145.9347  141.6066  163.7874 C.3     1  UNL1        0.0017
     31 C         145.1596  140.3295  163.6534 C.3     1  UNL1        0.0196
@<TRIPOS>BOND
     1    30    31    1
     2    31    18    1
     3    18    19    1
     4    19    20   am
     5    20    21    2
     6    20    23    1
     7    23    24   ar
     8    24    25   ar
     9    25    26   ar
    10    26    27    1
    11    26    28   ar
    12    28    29   ar
    13     1    18    1
    14     1     2    1
    15     2     3    1
    16     3     4    1
    17     4     7    1
    18     7     8   ar
    19     8     9   ar
    20     9    10   ar
    21    10    11   ar
    22    11    12   ar
    23    12    16    1
    24    16    17    3
    25    12    13   ar
    26    13    14   ar
    27    14    15   ar
    28     4     5    1
    29     6     5    1
    30    29    23   ar
    31     6     1    1
    32     6     2    1
    33    15     7   ar
    34    15    10   ar
    35    19    22    1
@<TRIPOS>MOLECULE
*****
 31 35 0 0 0
SMALL
GASTEIGER

@<TRIPOS>ATOM
      1 C         143.6853  140.2854  160.6965 C.3     1  UNL1        0.0181
      2 C         142.7797  140.2149  161.8903 C.3     1  UNL1        0.0036
      3 C         142.1402  140.0903  163.2415 C.3     1  UNL1        0.0227
      4 C         143.2225  139.8166  164.2432 C.3     1  UNL1        0.0884
      5 C         144.5311  139.7721  163.5113 C.3     1  UNL1        0.0227
      6 C         144.2574  140.0183  162.0572 C.3     1  UNL1        0.0036
      7 N         143.0301  139.6217  165.7180 N.ar    1  UNL1       -0.2964
      8 C         143.6133  138.5140  166.5444 C.ar    1  UNL1        0.1796
      9 N         143.1644  138.7081  167.9625 N.ar    1  UNL1       -0.2223
     10 C         142.3038  139.9356  168.0125 C.ar    1  UNL1        0.1178
     11 C         141.5850  140.6122  169.1419 C.ar    1  UNL1        0.0341
     12 C         140.7833  141.8534  168.8841 C.ar    1  UNL1        0.0892
     13 C         140.7003  142.4181  167.4969 C.ar    1  UNL1        0.1108
     14 N         141.4191  141.7416  166.3675 N.ar    1  UNL1       -0.2245
     15 C         142.2208  140.5003  166.6253 C.ar    1  UNL1        0.1627
     16 C         140.0644  142.5300  170.0135 C.1     1  UNL1        0.1020
     17 N         139.3457  143.2066  171.1429 N.1     1  UNL1       -0.1908
     18 C         143.8777  140.4803  159.2218 C.3     1  UNL1        0.0718
     19 N         143.8951  139.2937  158.3044 N.am    1  UNL1       -0.3025
     20 C         142.6142  138.7831  157.7141 C.2     1  UNL1        0.2458
     21 O         141.3157  139.4591  158.0412 O.2     1  UNL1       -0.2701
     22 H         144.7474  138.8500  158.0897 H       1  UNL1        0.1497
     23 C         142.6317  137.5964  156.7967 C.ar    1  UNL1        0.0534
     24 C         142.6730  137.7976  155.3109 C.ar    1  UNL1        0.0054
     25 C         142.6905  136.6110  154.3935 C.ar    1  UNL1        0.0115
     26 C         142.6667  135.2231  154.9620 C.ar    1  UNL1        0.0577
     27 CL        142.6842  134.0365  154.0446 Cl      1  UNL1       -0.0822
     28 C         142.6253  135.0218  156.4478 C.ar    1  UNL1        0.0115
     29 C         142.6078  136.2084  157.3652 C.ar    1  UNL1        0.0054
     30 C         144.8951  142.0763  157.4421 C.3     1  UNL1        0.0017
     31 C         144.0526  141.8619  158.6643 C.3     1  UNL1        0.0196
@<TRIPOS>BOND
     1    30    31    1
     2    31    18    1
     3    18    19    1
     4    19    20   am
     5    20    21    2
     6    20    23    1
     7    23    24   ar
     8    24    25   ar
     9    25    26   ar
    10    26    27    1
    11    26    28   ar
    12    28    29   ar
    13     1    18    1
    14     1     2    1
    15     2     3    1
    16     3     4    1
    17     4     7    1
    18     7     8   ar
    19     8     9   ar
    20     9    10   ar
    21    10    11   ar
    22    11    12   ar
    23    12    16    1
    24    16    17    3
    25    12    13   ar
    26    13    14   ar
    27    14    15   ar
    28     4     5    1
    29     6     5    1
    30    29    23   ar
    31     6     1    1
    32     6     2    1
    33    15     7   ar
    34    15    10   ar
    35    19    22    1
@<TRIPOS>MOLECULE
*****
 31 35 0 0 0
SMALL
GASTEIGER

@<TRIPOS>ATOM
      1 C         139.2711  139.3587  160.0002 C.3     1  UNL1        0.0181
      2 C         139.4549  140.0917  161.2960 C.3     1  UNL1        0.0036
      3 C         139.5373  140.5567  162.7197 C.3     1  UNL1        0.0227
      4 C         139.0908  139.4291  163.6023 C.3     1  UNL1        0.0884
      5 C         138.7324  138.2670  162.7242 C.3     1  UNL1        0.0227
      6 C         138.9575  138.6765  161.2988 C.3     1  UNL1        0.0036
      7 N         139.0158  139.4583  165.1002 N.ar    1  UNL1       -0.2964
      8 C         138.1867  138.5503  165.9593 C.ar    1  UNL1        0.1796
      9 N         138.4152  138.9315  167.3919 N.ar    1  UNL1       -0.2223
     10 C         139.3856  140.0751  167.4182 C.ar    1  UNL1        0.1178
     11 C         139.9792  140.8619  168.5489 C.ar    1  UNL1        0.0341
     12 C         140.9439  141.9744  168.2632 C.ar    1  UNL1        0.0892
     13 C         141.3151  142.3000  166.8468 C.ar    1  UNL1        0.1108
     14 N         140.7215  141.5131  165.7161 N.ar    1  UNL1       -0.2245
     15 C         139.7568  140.4006  166.0018 C.ar    1  UNL1        0.1627
     16 C         141.5375  142.7613  169.3939 C.1     1  UNL1        0.1020
     17 N         142.1311  143.5482  170.5245 N.1     1  UNL1       -0.1908
     18 C         139.3461  139.3295  158.5024 C.3     1  UNL1        0.0718
     19 N         139.8022  138.0860  157.7984 N.am    1  UNL1       -0.3025
     20 C         141.2412  137.9327  157.4035 C.2     1  UNL1        0.2458
     21 O         142.2240  139.0228  157.7126 O.2     1  UNL1       -0.2701
     22 H         139.1572  137.3705  157.5955 H       1  UNL1        0.1497
     23 C         141.6973  136.6891  156.6994 C.ar    1  UNL1        0.0534
     24 C         140.8340  136.0659  155.6430 C.ar    1  UNL1        0.0054
     25 C         141.2901  134.8224  154.9390 C.ar    1  UNL1        0.0115
     26 C         142.6095  134.2021  155.2915 C.ar    1  UNL1        0.0577
     27 CL        143.0656  132.9586  154.5875 Cl      1  UNL1       -0.0822
     28 C         143.4729  134.8253  156.3480 C.ar    1  UNL1        0.0115
     29 C         143.0168  136.0688  157.0520 C.ar    1  UNL1        0.0054
     30 C         138.0560  141.5761  158.3067 C.3     1  UNL1        0.0017
     31 C         138.9650  140.5438  157.7085 C.3     1  UNL1        0.0196
@<TRIPOS>BOND
     1    30    31    1
     2    31    18    1
     3    18    19    1
     4    19    20   am
     5    20    21    2
     6    20    23    1
     7    23    24   ar
     8    24    25   ar
     9    25    26   ar
    10    26    27    1
    11    26    28   ar
    12    28    29   ar
    13     1    18    1
    14     1     2    1
    15     2     3    1
    16     3     4    1
    17     4     7    1
    18     7     8   ar
    19     8     9   ar
    20     9    10   ar
    21    10    11   ar
    22    11    12   ar
    23    12    16    1
    24    16    17    3
    25    12    13   ar
    26    13    14   ar
    27    14    15   ar
    28     4     5    1
    29     6     5    1
    30    29    23   ar
    31     6     1    1
    32     6     2    1
    33    15     7   ar
    34    15    10   ar
    35    19    22    1
@<TRIPOS>MOLECULE
*****
 31 35 0 0 0
SMALL
GASTEIGER

@<TRIPOS>ATOM
      1 C         141.9091  143.3639  162.2578 C.3     1  UNL1        0.0181
      2 C         141.7175  142.7618  160.8973 C.3     1  UNL1        0.0036
      3 C         141.8332  142.0991  159.5566 C.3     1  UNL1        0.0227
      4 C         143.2618  141.6833  159.3666 C.3     1  UNL1        0.0884
      5 C         144.0292  142.0891  160.5899 C.3     1  UNL1        0.0227
      6 C         143.0748  142.7556  161.5359 C.3     1  UNL1        0.0036
      7 N         143.8243  140.9845  158.1644 N.ar    1  UNL1       -0.2964
      8 C         143.2719  139.7443  157.5267 C.ar    1  UNL1        0.1796
      9 N         144.1442  139.3966  156.3570 N.ar    1  UNL1       -0.2223
     10 C         145.2357  140.4219  156.2718 C.ar    1  UNL1        0.1178
     11 C         146.3841  140.5887  155.3214 C.ar    1  UNL1        0.0341
     12 C         147.3348  141.7369  155.4879 C.ar    1  UNL1        0.0892
     13 C         147.1371  142.7184  156.6050 C.ar    1  UNL1        0.1108
     14 N         145.9887  142.5516  157.5554 N.ar    1  UNL1       -0.2245
     15 C         145.0380  141.4034  157.3888 C.ar    1  UNL1        0.1627
     16 C         148.4833  141.9038  154.5375 C.1     1  UNL1        0.1020
     17 N         149.6317  142.0706  153.5871 N.1     1  UNL1       -0.1908
     18 C         141.3466  144.0626  163.4599 C.3     1  UNL1        0.0718
     19 N         141.3408  143.3747  164.7928 N.am    1  UNL1       -0.3025
     20 C         140.0823  142.7370  165.3022 C.2     1  UNL1        0.2458
     21 O         138.8296  142.7871  164.4786 O.2     1  UNL1       -0.2701
     22 H         142.1629  143.3418  165.3334 H       1  UNL1        0.1497
     23 C         140.0764  142.0490  166.6352 C.ar    1  UNL1        0.0534
     24 C         139.5717  140.6413  166.7505 C.ar    1  UNL1        0.0054
     25 C         139.5658  139.9534  168.0834 C.ar    1  UNL1        0.0115
     26 C         140.0648  140.6733  169.3011 C.ar    1  UNL1        0.0577
     27 CL        140.0589  139.9854  170.6340 Cl      1  UNL1       -0.0822
     28 C         140.5696  142.0811  169.1858 C.ar    1  UNL1        0.0115
     29 C         140.5754  142.7690  167.8529 C.ar    1  UNL1        0.0054
     30 C         140.1708  145.8903  162.0362 C.3     1  UNL1        0.0017
     31 C         140.7899  145.4494  163.3292 C.3     1  UNL1        0.0196
@<TRIPOS>BOND
     1    30    31    1
     2    31    18    1
     3    18    19    1
     4    19    20   am
     5    20    21    2
     6    20    23    1
     7    23    24   ar
     8    24    25   ar
     9    25    26   ar
    10    26    27    1
    11    26    28   ar
    12    28    29   ar
    13     1    18    1
    14     1     2    1
    15     2     3    1
    16     3     4    1
    17     4     7    1
    18     7     8   ar
    19     8     9   ar
    20     9    10   ar
    21    10    11   ar
    22    11    12   ar
    23    12    16    1
    24    16    17    3
    25    12    13   ar
    26    13    14   ar
    27    14    15   ar
    28     4     5    1
    29     6     5    1
    30    29    23   ar
    31     6     1    1
    32     6     2    1
    33    15     7   ar
    34    15    10   ar
    35    19    22    1
