@<TRIPOS>MOLECULE
*****
 40 45 0 0 0
SMALL
GASTEIGER

@<TRIPOS>ATOM
      1 C         137.8145  142.9870  163.4347 C.3     1  UNL1        0.0932
      2 C         137.9696  142.8840  161.9463 C.3     1  UNL1        0.0286
      3 C         137.9997  141.5371  161.2869 C.3     1  UNL1        0.0193
      4 C         137.8746  140.2932  162.1158 C.3     1  UNL1        0.0700
      5 C         137.7194  140.3962  163.6042 C.3     1  UNL1        0.0193
      6 C         137.6894  141.7432  164.2636 C.3     1  UNL1        0.0286
      7 C         137.8527  141.0090  162.5221 C.3     1  UNL1        0.1562
      8 O         137.8255  142.2269  163.1184 O.3     1  UNL1       -0.3572
      9 N         137.9046  138.9463  161.4563 N.3     1  UNL1       -0.2926
     10 H         137.3174  139.0124  160.6249 H       1  UNL1        0.1236
     11 C         139.2115  138.3551  161.0175 C.3     1  UNL1        0.1152
     12 C         140.4125  138.4432  161.9118 C.ar    1  UNL1        0.0765
     13 C         140.5466  137.5134  163.0813 C.ar    1  UNL1        0.0193
     14 C         141.7476  137.6016  163.9756 C.ar    1  UNL1        0.0411
     15 C         142.8145  138.6194  163.7005 C.ar    1  UNL1        0.1708
     16 C         142.6804  139.5492  162.5310 C.ar    1  UNL1        0.1682
     17 N         141.4794  139.4610  161.6367 N.ar    1  UNL1       -0.2304
     18 N         143.7473  140.5670  162.2559 N.am    1  UNL1       -0.2639
     19 C         144.9483  140.6552  163.1502 C.2     1  UNL1        0.2718
     20 O         146.0152  141.6730  162.8751 O.2     1  UNL1       -0.2707
     21 C         145.0824  139.7254  164.3197 C.3     1  UNL1        0.2898
     22 O         144.0155  138.7075  164.5948 O.3     1  UNL1       -0.4628
     23 H         143.6593  141.1772  161.4884 H       1  UNL1        0.1565
     24 C         137.7844  144.3339  164.0942 C.3     1  UNL1        0.0320
     25 C         138.9175  144.7610  164.9796 C.3     1  UNL1        0.0327
     26 C         140.7161  141.5394  167.5557 C.ar    1  UNL1        0.1567
     27 C         142.1073  141.0497  167.2822 C.ar    1  UNL1        0.0273
     28 C         142.8989  141.6340  166.1499 C.ar    1  UNL1        0.0224
     29 C         142.2994  142.7078  165.2912 C.ar    1  UNL1        0.0988
     30 N         143.0911  143.2921  164.1590 N.ar    1  UNL1       -0.2400
     31 C         142.4916  144.3659  163.3003 C.ar    1  UNL1        0.1281
     32 C         141.1003  144.8556  163.5738 C.ar    1  UNL1        0.1566
     33 F         140.5008  145.9294  162.7152 F       1  UNL1       -0.2028
     34 C         140.3086  144.2713  164.7061 C.ar    1  UNL1        0.0260
     35 C         140.9082  143.1974  165.5648 C.ar    1  UNL1        0.0973
     36 N         140.1166  142.6132  166.6970 N.ar    1  UNL1       -0.2375
     37 C         139.9244  140.9551  168.6879 C.2     1  UNL1        0.3592
     38 O         139.9499  141.6099  170.0372 O.2     1  UNL1       -0.2432
     39 C         138.7502  139.2876  167.0785 C.3     1  UNL1        0.2560
     40 O         139.1073  139.7161  168.4709 O.3     1  UNL1       -0.4403
@<TRIPOS>BOND
     1    39    40    1
     2    40    37    1
     3    37    38    2
     4    37    26    1
     5    26    27   ar
     6    27    28   ar
     7    28    29   ar
     8    29    30   ar
     9    30    31   ar
    10    31    32   ar
    11    32    33    1
    12    32    34   ar
    13    34    25    1
    14    25    24    1
    15    24     1    1
    16     1     2    1
    17     2     3    1
    18     3     4    1
    19     4     9    1
    20     9    11    1
    21    11    12    1
    22    12    13   ar
    23    13    14   ar
    24    14    15   ar
    25    15    16   ar
    26    16    17   ar
    27    16    18    1
    28    18    19   am
    29    19    20    2
    30    19    21    1
    31    21    22    1
    32     4     5    1
    33     5     6    1
    34     4     7    1
    35     7     8    1
    36    34    35   ar
    37    35    36   ar
    38    36    26   ar
    39    35    29   ar
    40     6     1    1
    41     8     1    1
    42    17    12   ar
    43    22    15    1
    44     9    10    1
    45    18    23    1
@<TRIPOS>MOLECULE
*****
 40 45 0 0 0
SMALL
GASTEIGER

@<TRIPOS>ATOM
      1 C         142.0022  138.1198  164.1462 C.3     1  UNL1        0.0932
      2 C         142.9151  138.6672  165.2031 C.3     1  UNL1        0.0286
      3 C         144.1136  139.4796  164.8116 C.3     1  UNL1        0.0193
      4 C         144.3994  139.7448  163.3631 C.3     1  UNL1        0.0700
      5 C         143.4866  139.1974  162.3062 C.3     1  UNL1        0.0193
      6 C         142.2879  138.3849  162.6977 C.3     1  UNL1        0.0286
      7 C         143.7306  139.2941  163.5290 C.3     1  UNL1        0.1562
      8 O         142.6468  138.5595  163.8830 O.3     1  UNL1       -0.3572
      9 N         145.5980  140.5572  162.9716 N.3     1  UNL1       -0.2926
     10 H         145.6586  140.5211  161.9540 H       1  UNL1        0.1236
     11 C         145.6828  142.0037  163.3594 C.3     1  UNL1        0.1152
     12 C         144.4808  142.8898  163.2181 C.ar    1  UNL1        0.0765
     13 C         143.8568  143.5070  164.4345 C.ar    1  UNL1        0.0193
     14 C         142.6548  144.3931  164.2931 C.ar    1  UNL1        0.0411
     15 C         142.0768  144.6620  162.9354 C.ar    1  UNL1        0.1708
     16 C         142.7007  144.0449  161.7189 C.ar    1  UNL1        0.1682
     17 N         143.9028  143.1587  161.8603 N.ar    1  UNL1       -0.2304
     18 N         142.1227  144.3138  160.3612 N.am    1  UNL1       -0.2639
     19 C         140.9207  145.1999  160.2198 C.2     1  UNL1        0.2718
     20 O         140.3427  145.4688  158.8620 O.2     1  UNL1       -0.2707
     21 C         140.2967  145.8171  161.4363 C.3     1  UNL1        0.2898
     22 O         140.8747  145.5482  162.7940 O.3     1  UNL1       -0.4628
     23 H         142.5322  143.9087  159.5628 H       1  UNL1        0.1565
     24 C         140.8037  137.3074  164.5377 C.3     1  UNL1        0.0320
     25 C         139.5457  137.9929  164.9825 C.3     1  UNL1        0.0327
     26 C         140.1741  142.1806  166.5051 C.ar    1  UNL1        0.1567
     27 C         139.6417  143.3485  165.7290 C.ar    1  UNL1        0.0273
     28 C         138.8999  143.1206  164.4453 C.ar    1  UNL1        0.0224
     29 C         138.6904  141.7247  163.9378 C.ar    1  UNL1        0.0988
     30 N         137.9485  141.4968  162.6542 N.ar    1  UNL1       -0.2400
     31 C         137.7391  140.1009  162.1467 C.ar    1  UNL1        0.1281
     32 C         138.2715  138.9329  162.9228 C.ar    1  UNL1        0.1566
     33 F         138.0620  137.5370  162.4153 F       1  UNL1       -0.2028
     34 C         139.0133  139.1608  164.2064 C.ar    1  UNL1        0.0260
     35 C         139.2228  140.5568  164.7139 C.ar    1  UNL1        0.0973
     36 N         139.9646  140.7847  165.9976 N.ar    1  UNL1       -0.2375
     37 C         140.9160  142.4085  167.7887 C.2     1  UNL1        0.3592
     38 O         140.3573  143.3408  168.8225 O.2     1  UNL1       -0.2432
     39 C         143.2002  142.2709  169.0189 C.3     1  UNL1        0.2560
     40 O         142.2165  141.7041  168.0386 O.3     1  UNL1       -0.4403
@<TRIPOS>BOND
     1    39    40    1
     2    40    37    1
     3    37    38    2
     4    37    26    1
     5    26    27   ar
     6    27    28   ar
     7    28    29   ar
     8    29    30   ar
     9    30    31   ar
    10    31    32   ar
    11    32    33    1
    12    32    34   ar
    13    34    25    1
    14    25    24    1
    15    24     1    1
    16     1     2    1
    17     2     3    1
    18     3     4    1
    19     4     9    1
    20     9    11    1
    21    11    12    1
    22    12    13   ar
    23    13    14   ar
    24    14    15   ar
    25    15    16   ar
    26    16    17   ar
    27    16    18    1
    28    18    19   am
    29    19    20    2
    30    19    21    1
    31    21    22    1
    32     4     5    1
    33     5     6    1
    34     4     7    1
    35     7     8    1
    36    34    35   ar
    37    35    36   ar
    38    36    26   ar
    39    35    29   ar
    40     6     1    1
    41     8     1    1
    42    17    12   ar
    43    22    15    1
    44     9    10    1
    45    18    23    1
@<TRIPOS>MOLECULE
*****
 40 45 0 0 0
SMALL
GASTEIGER

@<TRIPOS>ATOM
      1 C         144.5961  140.1363  163.3415 C.3     1  UNL1        0.0932
      2 C         144.1684  140.0506  161.9063 C.3     1  UNL1        0.0286
      3 C         143.0760  139.1045  161.5046 C.3     1  UNL1        0.0193
      4 C         142.4112  138.2441  162.5380 C.3     1  UNL1        0.0700
      5 C         142.8389  138.3298  163.9731 C.3     1  UNL1        0.0193
      6 C         143.9314  139.2760  164.3749 C.3     1  UNL1        0.0286
      7 C         143.0051  138.7474  162.8060 C.3     1  UNL1        0.1562
      8 O         143.9930  139.6029  163.1694 O.3     1  UNL1       -0.3572
      9 N         141.3188  137.2980  162.1362 N.3     1  UNL1       -0.2926
     10 H         141.1744  136.6641  162.9221 H       1  UNL1        0.1236
     11 C         139.9689  137.8295  161.7550 C.3     1  UNL1        0.1152
     12 C         139.3943  139.0087  162.4825 C.ar    1  UNL1        0.0765
     13 C         138.7627  138.8234  163.8304 C.ar    1  UNL1        0.0193
     14 C         138.1881  140.0026  164.5579 C.ar    1  UNL1        0.0411
     15 C         138.2452  141.3672  163.9376 C.ar    1  UNL1        0.1708
     16 C         138.8768  141.5525  162.5898 C.ar    1  UNL1        0.1682
     17 N         139.4514  140.3732  161.8622 N.ar    1  UNL1       -0.2304
     18 N         138.9339  142.9170  161.9694 N.am    1  UNL1       -0.2639
     19 C         138.3593  144.0962  162.6969 C.2     1  UNL1        0.2718
     20 O         138.4164  145.4608  162.0766 O.2     1  UNL1       -0.2707
     21 C         137.7277  143.9109  164.0448 C.3     1  UNL1        0.2898
     22 O         137.6706  142.5464  164.6651 O.3     1  UNL1       -0.4628
     23 H         139.3485  143.0386  161.0848 H       1  UNL1        0.1565
     24 C         145.6886  141.0824  163.7433 C.3     1  UNL1        0.0320
     25 C         145.3509  142.3598  164.4535 C.3     1  UNL1        0.0327
     26 C         142.2402  141.6866  167.6347 C.ar    1  UNL1        0.1567
     27 C         140.8741  142.2883  167.4871 C.ar    1  UNL1        0.0273
     28 C         140.5450  143.1144  166.2791 C.ar    1  UNL1        0.0224
     29 C         141.5819  143.3388  165.2187 C.ar    1  UNL1        0.0988
     30 N         141.2527  144.1649  164.0108 N.ar    1  UNL1       -0.2400
     31 C         142.2896  144.3893  162.9504 C.ar    1  UNL1        0.1281
     32 C         143.6557  143.7876  163.0979 C.ar    1  UNL1        0.1566
     33 F         144.6926  144.0120  162.0376 F       1  UNL1       -0.2028
     34 C         143.9849  142.9615  164.3059 C.ar    1  UNL1        0.0260
     35 C         142.9479  142.7371  165.3663 C.ar    1  UNL1        0.0973
     36 N         143.2771  141.9110  166.5743 N.ar    1  UNL1       -0.2375
     37 C         142.5693  140.8605  168.8427 C.2     1  UNL1        0.3592
     38 O         142.9310  139.4133  168.6857 O.2     1  UNL1       -0.2432
     39 C         142.9282  142.9184  170.3873 C.3     1  UNL1        0.2560
     40 O         142.5368  141.4816  170.2076 O.3     1  UNL1       -0.4403
@<TRIPOS>BOND
     1    39    40    1
     2    40    37    1
     3    37    38    2
     4    37    26    1
     5    26    27   ar
     6    27    28   ar
     7    28    29   ar
     8    29    30   ar
     9    30    31   ar
    10    31    32   ar
    11    32    33    1
    12    32    34   ar
    13    34    25    1
    14    25    24    1
    15    24     1    1
    16     1     2    1
    17     2     3    1
    18     3     4    1
    19     4     9    1
    20     9    11    1
    21    11    12    1
    22    12    13   ar
    23    13    14   ar
    24    14    15   ar
    25    15    16   ar
    26    16    17   ar
    27    16    18    1
    28    18    19   am
    29    19    20    2
    30    19    21    1
    31    21    22    1
    32     4     5    1
    33     5     6    1
    34     4     7    1
    35     7     8    1
    36    34    35   ar
    37    35    36   ar
    38    36    26   ar
    39    35    29   ar
    40     6     1    1
    41     8     1    1
    42    17    12   ar
    43    22    15    1
    44     9    10    1
    45    18    23    1
@<TRIPOS>MOLECULE
*****
 40 45 0 0 0
SMALL
GASTEIGER

@<TRIPOS>ATOM
      1 C         139.3777  137.8808  164.5822 C.3     1  UNL1        0.0932
      2 C         140.7955  137.5349  164.9292 C.3     1  UNL1        0.0286
      3 C         141.8058  137.3304  163.8396 C.3     1  UNL1        0.0193
      4 C         141.3984  137.4719  162.4028 C.3     1  UNL1        0.0700
      5 C         139.9807  137.8178  162.0558 C.3     1  UNL1        0.0193
      6 C         138.9704  138.0222  163.1456 C.3     1  UNL1        0.0286
      7 C         140.8094  137.5933  162.9652 C.3     1  UNL1        0.1562
      8 O         139.8958  137.7782  163.9505 O.3     1  UNL1       -0.3572
      9 N         142.4088  137.2674  161.3132 N.3     1  UNL1       -0.2926
     10 H         141.9348  137.4636  160.4316 H       1  UNL1        0.1236
     11 C         143.6790  138.0653  161.3088 C.3     1  UNL1        0.1152
     12 C         143.6854  139.4681  161.8399 C.ar    1  UNL1        0.0765
     13 C         144.5641  139.8262  163.0017 C.ar    1  UNL1        0.0193
     14 C         144.5705  141.2290  163.5327 C.ar    1  UNL1        0.0411
     15 C         143.6982  142.2737  162.9021 C.ar    1  UNL1        0.1708
     16 C         142.8195  141.9156  161.7404 C.ar    1  UNL1        0.1682
     17 N         142.8130  140.5127  161.2093 N.ar    1  UNL1       -0.2304
     18 N         141.9471  142.9603  161.1098 N.am    1  UNL1       -0.2639
     19 C         141.9535  144.3631  161.6409 C.2     1  UNL1        0.2718
     20 O         141.0812  145.4078  161.0103 O.2     1  UNL1       -0.2707
     21 C         142.8323  144.7212  162.8027 C.3     1  UNL1        0.2898
     22 O         143.7046  143.6765  163.4333 O.3     1  UNL1       -0.4628
     23 H         141.3704  142.7252  160.3474 H       1  UNL1        0.1565
     24 C         138.3674  138.0852  165.6718 C.3     1  UNL1        0.0320
     25 C         138.1575  139.4520  166.2533 C.3     1  UNL1        0.0327
     26 C         141.9927  140.5675  168.3261 C.ar    1  UNL1        0.1567
     27 C         142.8043  141.7268  167.8288 C.ar    1  UNL1        0.0273
     28 C         142.3374  142.5143  166.6406 C.ar    1  UNL1        0.0224
     29 C         141.0591  142.1425  165.9496 C.ar    1  UNL1        0.0988
     30 N         140.5922  142.9300  164.7614 N.ar    1  UNL1       -0.2400
     31 C         139.3139  142.5582  164.0704 C.ar    1  UNL1        0.1281
     32 C         138.5022  141.3988  164.5677 C.ar    1  UNL1        0.1566
     33 F         137.2239  141.0270  163.8768 F       1  UNL1       -0.2028
     34 C         138.9691  140.6113  165.7560 C.ar    1  UNL1        0.0260
     35 C         140.2475  140.9832  166.4469 C.ar    1  UNL1        0.0973
     36 N         140.7144  140.1957  167.6352 N.ar    1  UNL1       -0.2375
     37 C         142.4596  139.7800  169.5144 C.2     1  UNL1        0.3592
     38 O         143.1072  138.4412  169.3194 O.2     1  UNL1       -0.2432
     39 C         141.1308  141.2500  171.1947 C.3     1  UNL1        0.2560
     40 O         142.2788  140.3314  170.8976 O.3     1  UNL1       -0.4403
@<TRIPOS>BOND
     1    39    40    1
     2    40    37    1
     3    37    38    2
     4    37    26    1
     5    26    27   ar
     6    27    28   ar
     7    28    29   ar
     8    29    30   ar
     9    30    31   ar
    10    31    32   ar
    11    32    33    1
    12    32    34   ar
    13    34    25    1
    14    25    24    1
    15    24     1    1
    16     1     2    1
    17     2     3    1
    18     3     4    1
    19     4     9    1
    20     9    11    1
    21    11    12    1
    22    12    13   ar
    23    13    14   ar
    24    14    15   ar
    25    15    16   ar
    26    16    17   ar
    27    16    18    1
    28    18    19   am
    29    19    20    2
    30    19    21    1
    31    21    22    1
    32     4     5    1
    33     5     6    1
    34     4     7    1
    35     7     8    1
    36    34    35   ar
    37    35    36   ar
    38    36    26   ar
    39    35    29   ar
    40     6     1    1
    41     8     1    1
    42    17    12   ar
    43    22    15    1
    44     9    10    1
    45    18    23    1
@<TRIPOS>MOLECULE
*****
 40 45 0 0 0
SMALL
GASTEIGER

@<TRIPOS>ATOM
      1 C         143.6823  142.1512  163.5387 C.3     1  UNL1        0.0932
      2 C         142.8851  142.6937  164.6877 C.3     1  UNL1        0.0286
      3 C         142.0757  143.9447  164.5146 C.3     1  UNL1        0.0193
      4 C         142.0635  144.6532  163.1925 C.3     1  UNL1        0.0700
      5 C         142.8606  144.1107  162.0435 C.3     1  UNL1        0.0193
      6 C         143.6701  142.8597  162.2166 C.3     1  UNL1        0.0286
      7 C         142.5222  143.9710  163.2393 C.3     1  UNL1        0.1562
      8 O         143.2541  142.8399  163.3958 O.3     1  UNL1       -0.3572
      9 N         141.2541  145.9041  163.0194 N.3     1  UNL1       -0.2926
     10 H         141.7920  146.5210  162.4107 H       1  UNL1        0.1236
     11 C         139.8702  145.8287  162.4457 C.3     1  UNL1        0.1152
     12 C         139.2077  144.4961  162.2581 C.ar    1  UNL1        0.0765
     13 C         138.4062  143.8932  163.3736 C.ar    1  UNL1        0.0193
     14 C         137.7437  142.5607  163.1859 C.ar    1  UNL1        0.0411
     15 C         137.8827  141.8308  161.8829 C.ar    1  UNL1        0.1708
     16 C         138.6841  142.4336  160.7674 C.ar    1  UNL1        0.1682
     17 N         139.3467  143.7662  160.9550 N.ar    1  UNL1       -0.2304
     18 N         138.8231  141.7037  159.4643 N.am    1  UNL1       -0.2639
     19 C         138.1606  140.3711  159.2767 C.2     1  UNL1        0.2718
     20 O         138.2995  139.6413  157.9736 O.2     1  UNL1       -0.2707
     21 C         137.3591  139.7683  160.3922 C.3     1  UNL1        0.2898
     22 O         137.2201  140.4981  161.6953 O.3     1  UNL1       -0.4628
     23 H         139.3491  142.0994  158.7322 H       1  UNL1        0.1565
     24 C         144.4917  140.9003  163.7117 C.3     1  UNL1        0.0320
     25 C         143.8449  139.6562  164.2447 C.3     1  UNL1        0.0327
     26 C         139.7140  139.4947  166.0222 C.ar    1  UNL1        0.1567
     27 C         138.5953  138.8463  165.2619 C.ar    1  UNL1        0.0273
     28 C         138.8535  138.2517  163.9093 C.ar    1  UNL1        0.0224
     29 C         140.2304  138.3055  163.3168 C.ar    1  UNL1        0.0988
     30 N         140.4887  137.7109  161.9641 N.ar    1  UNL1       -0.2400
     31 C         141.8656  137.7647  161.3716 C.ar    1  UNL1        0.1281
     32 C         142.9844  138.4132  162.1318 C.ar    1  UNL1        0.1566
     33 F         144.3614  138.4670  161.5394 F       1  UNL1       -0.2028
     34 C         142.7262  139.0078  163.4845 C.ar    1  UNL1        0.0260
     35 C         141.3492  138.9539  164.0770 C.ar    1  UNL1        0.0973
     36 N         141.0909  139.5485  165.4297 N.ar    1  UNL1       -0.2375
     37 C         139.4557  140.0893  167.3748 C.2     1  UNL1        0.3592
     38 O         138.6028  139.3551  168.3664 O.2     1  UNL1       -0.2432
     39 C         140.4780  141.6897  169.1478 C.3     1  UNL1        0.2560
     40 O         140.0505  141.4181  167.7359 O.3     1  UNL1       -0.4403
@<TRIPOS>BOND
     1    39    40    1
     2    40    37    1
     3    37    38    2
     4    37    26    1
     5    26    27   ar
     6    27    28   ar
     7    28    29   ar
     8    29    30   ar
     9    30    31   ar
    10    31    32   ar
    11    32    33    1
    12    32    34   ar
    13    34    25    1
    14    25    24    1
    15    24     1    1
    16     1     2    1
    17     2     3    1
    18     3     4    1
    19     4     9    1
    20     9    11    1
    21    11    12    1
    22    12    13   ar
    23    13    14   ar
    24    14    15   ar
    25    15    16   ar
    26    16    17   ar
    27    16    18    1
    28    18    19   am
    29    19    20    2
    30    19    21    1
    31    21    22    1
    32     4     5    1
    33     5     6    1
    34     4     7    1
    35     7     8    1
    36    34    35   ar
    37    35    36   ar
    38    36    26   ar
    39    35    29   ar
    40     6     1    1
    41     8     1    1
    42    17    12   ar
    43    22    15    1
    44     9    10    1
    45    18    23    1
@<TRIPOS>MOLECULE
*****
 40 45 0 0 0
SMALL
GASTEIGER

@<TRIPOS>ATOM
      1 C         142.5024  144.5006  163.5111 C.3     1  UNL1        0.0932
      2 C         142.4261  144.3623  162.0194 C.3     1  UNL1        0.0286
      3 C         141.0994  144.1490  161.3529 C.3     1  UNL1        0.0193
      4 C         139.8489  144.0741  162.1780 C.3     1  UNL1        0.0700
      5 C         139.9252  144.2124  163.6696 C.3     1  UNL1        0.0193
      6 C         141.2520  144.4256  164.3362 C.3     1  UNL1        0.0286
      7 C         140.5530  144.1922  162.5881 C.3     1  UNL1        0.1562
      8 O         141.7527  144.3850  163.1909 O.3     1  UNL1       -0.3572
      9 N         138.5223  143.8609  161.5114 N.3     1  UNL1       -0.2926
     10 H         138.4583  144.5448  160.7573 H       1  UNL1        0.1236
     11 C         138.1888  142.5258  160.9145 C.3     1  UNL1        0.1152
     12 C         138.4034  141.2732  161.7114 C.ar    1  UNL1        0.0765
     13 C         138.9775  140.0541  161.0524 C.ar    1  UNL1        0.0193
     14 C         139.1922  138.8016  161.8493 C.ar    1  UNL1        0.0411
     15 C         138.8327  138.7681  163.3052 C.ar    1  UNL1        0.1708
     16 C         138.2585  139.9871  163.9642 C.ar    1  UNL1        0.1682
     17 N         138.0439  141.2397  163.1673 N.ar    1  UNL1       -0.2304
     18 N         137.8990  139.9536  165.4201 N.am    1  UNL1       -0.2639
     19 C         138.1136  138.7011  166.2170 C.2     1  UNL1        0.2718
     20 O         137.7541  138.6676  167.6729 O.2     1  UNL1       -0.2707
     21 C         138.6878  137.4820  165.5580 C.3     1  UNL1        0.2898
     22 O         139.0473  137.5155  164.1021 O.3     1  UNL1       -0.4628
     23 H         137.5222  140.7537  165.8526 H       1  UNL1        0.1565
     24 C         143.8291  144.7138  164.1777 C.3     1  UNL1        0.0320
     25 C         144.5644  143.5503  164.7742 C.3     1  UNL1        0.0327
     26 C         141.9800  141.1840  167.5976 C.ar    1  UNL1        0.1567
     27 C         141.5758  139.7825  167.2482 C.ar    1  UNL1        0.0273
     28 C         142.0329  139.1696  165.9577 C.ar    1  UNL1        0.0224
     29 C         142.8944  139.9584  165.0165 C.ar    1  UNL1        0.0988
     30 N         143.3516  139.3455  163.7260 N.ar    1  UNL1       -0.2400
     31 C         144.2130  140.1343  162.7849 C.ar    1  UNL1        0.1281
     32 C         144.6173  141.5359  163.1343 C.ar    1  UNL1        0.1566
     33 F         145.4788  142.3247  162.1931 F       1  UNL1       -0.2028
     34 C         144.1601  142.1488  164.4248 C.ar    1  UNL1        0.0260
     35 C         143.2986  141.3599  165.3659 C.ar    1  UNL1        0.0973
     36 N         142.8415  141.9728  166.6564 N.ar    1  UNL1       -0.2375
     37 C         141.5229  141.7969  168.8881 C.2     1  UNL1        0.3592
     38 O         142.1513  141.3746  170.1830 O.2     1  UNL1       -0.2432
     39 C         140.4804  143.9682  169.8620 C.3     1  UNL1        0.2560
     40 O         140.4372  142.8319  168.8837 O.3     1  UNL1       -0.4403
@<TRIPOS>BOND
     1    39    40    1
     2    40    37    1
     3    37    38    2
     4    37    26    1
     5    26    27   ar
     6    27    28   ar
     7    28    29   ar
     8    29    30   ar
     9    30    31   ar
    10    31    32   ar
    11    32    33    1
    12    32    34   ar
    13    34    25    1
    14    25    24    1
    15    24     1    1
    16     1     2    1
    17     2     3    1
    18     3     4    1
    19     4     9    1
    20     9    11    1
    21    11    12    1
    22    12    13   ar
    23    13    14   ar
    24    14    15   ar
    25    15    16   ar
    26    16    17   ar
    27    16    18    1
    28    18    19   am
    29    19    20    2
    30    19    21    1
    31    21    22    1
    32     4     5    1
    33     5     6    1
    34     4     7    1
    35     7     8    1
    36    34    35   ar
    37    35    36   ar
    38    36    26   ar
    39    35    29   ar
    40     6     1    1
    41     8     1    1
    42    17    12   ar
    43    22    15    1
    44     9    10    1
    45    18    23    1
@<TRIPOS>MOLECULE
*****
 40 45 0 0 0
SMALL
GASTEIGER

@<TRIPOS>ATOM
      1 C         138.3448  140.1230  163.7845 C.3     1  UNL1        0.0932
      2 C         138.2652  140.4689  162.3271 C.3     1  UNL1        0.0286
      3 C         138.0326  141.8894  161.9051 C.3     1  UNL1        0.0193
      4 C         137.8796  142.9640  162.9404 C.3     1  UNL1        0.0700
      5 C         137.9592  142.6180  164.3978 C.3     1  UNL1        0.0193
      6 C         138.1918  141.1975  164.8198 C.3     1  UNL1        0.0286
      7 C         138.0056  142.1999  163.2200 C.3     1  UNL1        0.1562
      8 O         138.2159  140.9154  163.6017 O.3     1  UNL1       -0.3572
      9 N         137.6470  144.3844  162.5183 N.3     1  UNL1       -0.2926
     10 H         136.9476  144.7694  163.1531 H       1  UNL1        0.1236
     11 C         138.7897  145.3558  162.4925 C.3     1  UNL1        0.1152
     12 C         140.2010  144.8521  162.4271 C.ar    1  UNL1        0.0765
     13 C         141.1110  145.0148  163.6085 C.ar    1  UNL1        0.0193
     14 C         142.5223  144.5110  163.5431 C.ar    1  UNL1        0.0411
     15 C         143.0238  143.8445  162.2964 C.ar    1  UNL1        0.1708
     16 C         142.1139  143.6818  161.1150 C.ar    1  UNL1        0.1682
     17 N         140.7025  144.1855  161.1804 N.ar    1  UNL1       -0.2304
     18 N         142.6153  143.0152  159.8683 N.am    1  UNL1       -0.2639
     19 C         144.0267  142.5115  159.8029 C.2     1  UNL1        0.2718
     20 O         144.5281  141.8450  158.5562 O.2     1  UNL1       -0.2707
     21 C         144.9366  142.6742  160.9843 C.3     1  UNL1        0.2898
     22 O         144.4352  143.3407  162.2310 O.3     1  UNL1       -0.4628
     23 H         142.0181  142.9084  159.0930 H       1  UNL1        0.1565
     24 C         138.5773  138.7025  164.2066 C.3     1  UNL1        0.0320
     25 C         139.8962  138.3024  164.7988 C.3     1  UNL1        0.0327
     26 C         141.8252  141.5548  167.2383 C.ar    1  UNL1        0.1567
     27 C         143.0902  142.2022  166.7582 C.ar    1  UNL1        0.0273
     28 C         143.7122  141.7655  165.4650 C.ar    1  UNL1        0.0224
     29 C         143.0693  140.6814  164.6518 C.ar    1  UNL1        0.0988
     30 N         143.6913  140.2448  163.3586 N.ar    1  UNL1       -0.2400
     31 C         143.0483  139.1607  162.5455 C.ar    1  UNL1        0.1281
     32 C         141.7833  138.5132  163.0255 C.ar    1  UNL1        0.1566
     33 F         141.1403  137.4291  162.2124 F       1  UNL1       -0.2028
     34 C         141.1612  138.9498  164.3187 C.ar    1  UNL1        0.0260
     35 C         141.8043  140.0340  165.1319 C.ar    1  UNL1        0.0973
     36 N         141.1822  140.4707  166.4251 N.ar    1  UNL1       -0.2375
     37 C         141.2031  141.9914  168.5315 C.2     1  UNL1        0.3592
     38 O         140.3665  143.2355  168.5789 O.2     1  UNL1       -0.2432
     39 C         140.3776  140.1984  170.2207 C.3     1  UNL1        0.2560
     40 O         141.4177  141.1840  169.7773 O.3     1  UNL1       -0.4403
@<TRIPOS>BOND
     1    39    40    1
     2    40    37    1
     3    37    38    2
     4    37    26    1
     5    26    27   ar
     6    27    28   ar
     7    28    29   ar
     8    29    30   ar
     9    30    31   ar
    10    31    32   ar
    11    32    33    1
    12    32    34   ar
    13    34    25    1
    14    25    24    1
    15    24     1    1
    16     1     2    1
    17     2     3    1
    18     3     4    1
    19     4     9    1
    20     9    11    1
    21    11    12    1
    22    12    13   ar
    23    13    14   ar
    24    14    15   ar
    25    15    16   ar
    26    16    17   ar
    27    16    18    1
    28    18    19   am
    29    19    20    2
    30    19    21    1
    31    21    22    1
    32     4     5    1
    33     5     6    1
    34     4     7    1
    35     7     8    1
    36    34    35   ar
    37    35    36   ar
    38    36    26   ar
    39    35    29   ar
    40     6     1    1
    41     8     1    1
    42    17    12   ar
    43    22    15    1
    44     9    10    1
    45    18    23    1
@<TRIPOS>MOLECULE
*****
 40 45 0 0 0
SMALL
GASTEIGER

@<TRIPOS>ATOM
      1 C         141.5672  145.1100  162.2894 C.3     1  UNL1        0.0932
      2 C         141.9549  144.2594  161.1163 C.3     1  UNL1        0.0286
      3 C         143.1894  143.4099  161.1812 C.3     1  UNL1        0.0193
      4 C         144.0363  143.4110  162.4193 C.3     1  UNL1        0.0700
      5 C         143.6486  144.2616  163.5924 C.3     1  UNL1        0.0193
      6 C         142.4140  145.1111  163.5274 C.3     1  UNL1        0.0286
      7 C         143.3689  143.8930  162.4305 C.3     1  UNL1        0.1562
      8 O         142.2525  144.6611  162.3718 O.3     1  UNL1       -0.3572
      9 N         145.2709  142.5616  162.4842 N.3     1  UNL1       -0.2926
     10 H         146.0062  143.1413  162.8887 H       1  UNL1        0.1236
     11 C         145.2574  141.2768  163.2582 C.3     1  UNL1        0.1152
     12 C         144.1404  140.2950  163.0625 C.ar    1  UNL1        0.0765
     13 C         144.1674  139.3505  161.8975 C.ar    1  UNL1        0.0193
     14 C         143.0504  138.3687  161.7018 C.ar    1  UNL1        0.0411
     15 C         141.9062  138.3315  162.6711 C.ar    1  UNL1        0.1708
     16 C         141.8791  139.2760  163.8361 C.ar    1  UNL1        0.1682
     17 N         142.9962  140.2578  164.0318 N.ar    1  UNL1       -0.2304
     18 N         140.7349  139.2387  164.8054 N.am    1  UNL1       -0.2639
     19 C         139.6179  138.2570  164.6097 C.2     1  UNL1        0.2718
     20 O         138.4737  138.2197  165.5790 O.2     1  UNL1       -0.2707
     21 C         139.6450  137.3124  163.4447 C.3     1  UNL1        0.2898
     22 O         140.7891  137.3497  162.4754 O.3     1  UNL1       -0.4628
     23 H         140.7172  139.8586  165.5700 H       1  UNL1        0.1565
     24 C         140.3326  145.9594  162.2244 C.3     1  UNL1        0.0320
     25 C         138.9800  145.3135  162.1653 C.3     1  UNL1        0.0327
     26 C         138.1635  141.6009  159.7570 C.ar    1  UNL1        0.1567
     27 C         137.9259  140.2932  160.4522 C.ar    1  UNL1        0.0273
     28 C         137.9604  140.2230  161.9502 C.ar    1  UNL1        0.0224
     29 C         138.2325  141.4605  162.7530 C.ar    1  UNL1        0.0988
     30 N         138.2670  141.3903  164.2509 N.ar    1  UNL1       -0.2400
     31 C         138.5392  142.6278  165.0537 C.ar    1  UNL1        0.1281
     32 C         138.7768  143.9356  164.3585 C.ar    1  UNL1        0.1566
     33 F         139.0490  145.1731  165.1613 F       1  UNL1       -0.2028
     34 C         138.7423  144.0058  162.8605 C.ar    1  UNL1        0.0260
     35 C         138.4702  142.7682  162.0578 C.ar    1  UNL1        0.0973
     36 N         138.4357  142.8384  160.5598 N.ar    1  UNL1       -0.2375
     37 C         138.1290  141.6711  158.2591 C.2     1  UNL1        0.3592
     38 O         138.8059  142.8037  157.5456 O.2     1  UNL1       -0.2432
     39 C         136.3026  140.9837  156.5441 C.3     1  UNL1        0.2560
     40 O         137.4177  140.6088  157.4746 O.3     1  UNL1       -0.4403
@<TRIPOS>BOND
     1    39    40    1
     2    40    37    1
     3    37    38    2
     4    37    26    1
     5    26    27   ar
     6    27    28   ar
     7    28    29   ar
     8    29    30   ar
     9    30    31   ar
    10    31    32   ar
    11    32    33    1
    12    32    34   ar
    13    34    25    1
    14    25    24    1
    15    24     1    1
    16     1     2    1
    17     2     3    1
    18     3     4    1
    19     4     9    1
    20     9    11    1
    21    11    12    1
    22    12    13   ar
    23    13    14   ar
    24    14    15   ar
    25    15    16   ar
    26    16    17   ar
    27    16    18    1
    28    18    19   am
    29    19    20    2
    30    19    21    1
    31    21    22    1
    32     4     5    1
    33     5     6    1
    34     4     7    1
    35     7     8    1
    36    34    35   ar
    37    35    36   ar
    38    36    26   ar
    39    35    29   ar
    40     6     1    1
    41     8     1    1
    42    17    12   ar
    43    22    15    1
    44     9    10    1
    45    18    23    1
@<TRIPOS>MOLECULE
*****
 40 45 0 0 0
SMALL
GASTEIGER

@<TRIPOS>ATOM
      1 C         142.7035  142.0939  166.3445 C.3     1  UNL1        0.0932
      2 C         141.3403  142.7011  166.4963 C.3     1  UNL1        0.0286
      3 C         140.1776  141.8429  166.8983 C.3     1  UNL1        0.0193
      4 C         140.3781  140.3775  167.1485 C.3     1  UNL1        0.0700
      5 C         141.7413  139.7704  166.9967 C.3     1  UNL1        0.0193
      6 C         142.9040  140.6286  166.5947 C.3     1  UNL1        0.0286
      7 C         141.0455  140.8074  166.9302 C.3     1  UNL1        0.1562
      8 O         142.0968  141.5834  166.5667 O.3     1  UNL1       -0.3572
      9 N         139.2154  139.5193  167.5505 N.3     1  UNL1       -0.2926
     10 H         138.7052  140.0326  168.2692 H       1  UNL1        0.1236
     11 C         138.2074  139.0935  166.5245 C.3     1  UNL1        0.1152
     12 C         138.6487  138.7739  165.1270 C.ar    1  UNL1        0.0765
     13 C         139.7231  137.7531  164.8947 C.ar    1  UNL1        0.0193
     14 C         140.1645  137.4335  163.4973 C.ar    1  UNL1        0.0411
     15 C         139.5315  138.1346  162.3320 C.ar    1  UNL1        0.1708
     16 C         138.4571  139.1553  162.5642 C.ar    1  UNL1        0.1682
     17 N         138.0157  139.4749  163.9618 N.ar    1  UNL1       -0.2304
     18 N         137.8241  139.8563  161.3990 N.am    1  UNL1       -0.2639
     19 C         138.2654  139.5367  160.0015 C.2     1  UNL1        0.2718
     20 O         137.6324  140.2378  158.8362 O.2     1  UNL1       -0.2707
     21 C         139.3398  138.5160  159.7692 C.3     1  UNL1        0.2898
     22 O         139.9728  137.8149  160.9344 O.3     1  UNL1       -0.4628
     23 H         137.1190  140.5262  161.5514 H       1  UNL1        0.1565
     24 C         143.8662  142.9521  165.9425 C.3     1  UNL1        0.0320
     25 C         143.9891  143.4335  164.5271 C.3     1  UNL1        0.0327
     26 C         140.2923  143.7721  161.9838 C.ar    1  UNL1        0.1567
     27 C         140.0749  142.8193  160.8460 C.ar    1  UNL1        0.0273
     28 C         141.0898  141.7535  160.5559 C.ar    1  UNL1        0.0224
     29 C         142.3221  141.6406  161.4036 C.ar    1  UNL1        0.0988
     30 N         143.3369  140.5749  161.1136 N.ar    1  UNL1       -0.2400
     31 C         144.5692  140.4620  161.9613 C.ar    1  UNL1        0.1281
     32 C         144.7866  141.4149  163.0992 C.ar    1  UNL1        0.1566
     33 F         146.0189  141.3020  163.9470 F       1  UNL1       -0.2028
     34 C         143.7717  142.4807  163.3893 C.ar    1  UNL1        0.0260
     35 C         142.5394  142.5935  162.5415 C.ar    1  UNL1        0.0973
     36 N         141.5245  143.6593  162.8316 N.ar    1  UNL1       -0.2375
     37 C         139.2774  144.8379  162.2739 C.2     1  UNL1        0.3592
     38 O         139.3548  146.1593  161.5683 O.2     1  UNL1       -0.2432
     39 C         137.7298  143.1788  163.5397 C.3     1  UNL1        0.2560
     40 O         138.1850  144.5823  163.2696 O.3     1  UNL1       -0.4403
@<TRIPOS>BOND
     1    39    40    1
     2    40    37    1
     3    37    38    2
     4    37    26    1
     5    26    27   ar
     6    27    28   ar
     7    28    29   ar
     8    29    30   ar
     9    30    31   ar
    10    31    32   ar
    11    32    33    1
    12    32    34   ar
    13    34    25    1
    14    25    24    1
    15    24     1    1
    16     1     2    1
    17     2     3    1
    18     3     4    1
    19     4     9    1
    20     9    11    1
    21    11    12    1
    22    12    13   ar
    23    13    14   ar
    24    14    15   ar
    25    15    16   ar
    26    16    17   ar
    27    16    18    1
    28    18    19   am
    29    19    20    2
    30    19    21    1
    31    21    22    1
    32     4     5    1
    33     5     6    1
    34     4     7    1
    35     7     8    1
    36    34    35   ar
    37    35    36   ar
    38    36    26   ar
    39    35    29   ar
    40     6     1    1
    41     8     1    1
    42    17    12   ar
    43    22    15    1
    44     9    10    1
    45    18    23    1
