@<TRIPOS>MOLECULE
*****
 33 36 0 0 0
SMALL
GASTEIGER

@<TRIPOS>ATOM
      1 C         139.4481  140.5894  165.9541 C.ar    1  UNL1        0.0040
      2 C         139.4292  139.9893  167.3286 C.ar    1  UNL1        0.0016
      3 C         139.9140  140.7877  168.5022 C.ar    1  UNL1        0.0712
      4 C         140.4178  142.1862  168.3013 C.ar    1  UNL1        0.0038
      5 C         140.4368  142.7863  166.9267 C.ar    1  UNL1       -0.0003
      6 C         139.9520  141.9879  165.7531 C.ar    1  UNL1       -0.0019
      7 C         139.8951  140.1877  169.8769 C.3     1  UNL1        0.4186
      8 F         139.8762  139.5876  171.2515 F       1  UNL1       -0.1659
      9 F         141.0969  139.3592  169.5318 F       1  UNL1       -0.1659
     10 F         138.6932  141.0161  170.2220 F       1  UNL1       -0.1659
     11 C         139.9709  142.5880  164.3784 C.2     1  UNL1        0.0044
     12 C         140.9953  143.6258  164.0272 C.2     1  UNL1        0.0579
     13 C         141.0143  144.2259  162.6526 C.2     1  UNL1        0.2492
     14 O         140.2150  145.4616  162.3626 O.2     1  UNL1       -0.2699
     15 N         141.8327  143.5903  161.5680 N.am    1  UNL1       -0.2761
     16 C         142.6320  142.3546  161.8580 C.3     1  UNL1        0.0942
     17 C         143.4504  141.7190  160.7734 C.3     1  UNL1        0.0308
     18 C         143.4693  142.3191  159.3988 C.3     1  UNL1        0.0816
     19 C         142.6700  143.5548  159.1088 C.3     1  UNL1        0.0308
     20 C         141.8516  144.1904  160.1934 C.3     1  UNL1        0.0942
     21 C         144.2877  141.6835  158.3143 C.ar    1  UNL1        0.2257
     22 N         144.1975  140.2557  157.8636 N.ar    1  UNL1       -0.1117
     23 N         145.1940  140.0538  156.7607 N.ar    1  UNL1       -0.1117
     24 C         145.9000  141.3570  156.5297 C.ar    1  UNL1        0.2266
     25 C         146.9770  141.6088  155.5165 C.3     1  UNL1        0.0967
     26 O         145.3399  142.3642  157.4899 O.2     1  UNL1       -0.4233
     27 C         138.9633  139.7910  164.7803 C.3     1  UNL1        0.1776
     28 C         143.3421  138.2464  162.2661 C.3     1  UNL1        0.0776
     29 C         141.9463  138.2731  162.8149 C.ar    1  UNL1        0.1838
     30 N         140.9073  137.2064  162.6340 N.ar    1  UNL1       -0.1123
     31 N         139.6634  137.6452  163.3483 N.ar    1  UNL1       -0.0451
     32 N         139.9336  138.9830  163.9706 N.ar    1  UNL1       -0.1467
     33 N         141.3445  139.3710  163.6409 N.ar    1  UNL1       -0.1339
@<TRIPOS>BOND
     1    28    29    1
     2    29    30   ar
     3    30    31   ar
     4    31    32   ar
     5    32    27    1
     6    27     1    1
     7     1     2   ar
     8     2     3   ar
     9     3     7    1
    10     7     8    1
    11     7     9    1
    12     7    10    1
    13     3     4   ar
    14     4     5   ar
    15     5     6   ar
    16     6    11    1
    17    11    12    2
    18    12    13    1
    19    13    14    2
    20    13    15   am
    21    15    16    1
    22    16    17    1
    23    17    18    1
    24    18    21    1
    25    21    22   ar
    26    22    23   ar
    27    23    24   ar
    28    24    25    1
    29    24    26   ar
    30    18    19    1
    31    19    20    1
    32    32    33   ar
    33    33    29   ar
    34     6     1   ar
    35    20    15    1
    36    26    21   ar
@<TRIPOS>MOLECULE
*****
 33 36 0 0 0
SMALL
GASTEIGER

@<TRIPOS>ATOM
      1 C         142.1852  139.3769  166.2750 C.ar    1  UNL1        0.0040
      2 C         142.9229  139.2652  167.5763 C.ar    1  UNL1        0.0016
      3 C         142.2252  139.5887  168.8641 C.ar    1  UNL1        0.0712
      4 C         140.7898  140.0240  168.8506 C.ar    1  UNL1        0.0038
      5 C         140.0521  140.1358  167.5493 C.ar    1  UNL1       -0.0003
      6 C         140.7498  139.8122  166.2615 C.ar    1  UNL1       -0.0019
      7 C         142.9628  139.4770  170.1654 C.3     1  UNL1        0.4186
      8 F         143.7005  139.3653  171.4667 F       1  UNL1       -0.1659
      9 F         143.2052  140.9572  170.1551 F       1  UNL1       -0.1659
     10 F         142.7205  137.9967  170.1757 F       1  UNL1       -0.1659
     11 C         140.0122  139.9240  164.9602 C.2     1  UNL1        0.0044
     12 C         139.3344  141.2100  164.5903 C.2     1  UNL1        0.0579
     13 C         138.5968  141.3218  163.2891 C.2     1  UNL1        0.2492
     14 O         137.3052  140.5844  163.0933 O.2     1  UNL1       -0.2699
     15 N         139.1506  142.1709  162.1835 N.am    1  UNL1       -0.2761
     16 C         140.4421  142.9082  162.3792 C.3     1  UNL1        0.0942
     17 C         140.9960  143.7573  161.2737 C.3     1  UNL1        0.0308
     18 C         140.2583  143.8691  159.9724 C.3     1  UNL1        0.0816
     19 C         138.9668  143.1318  159.7766 C.3     1  UNL1        0.0308
     20 C         138.4129  142.2826  160.8822 C.3     1  UNL1        0.0942
     21 C         140.8122  144.7183  158.8669 C.ar    1  UNL1        0.2257
     22 N         142.1517  145.3933  158.8601 N.ar    1  UNL1       -0.1117
     23 N         142.2912  146.1337  157.5630 N.ar    1  UNL1       -0.1117
     24 C         141.0378  145.9162  156.7681 C.ar    1  UNL1        0.2266
     25 C         140.7492  146.4753  155.4065 C.3     1  UNL1        0.0967
     26 O         140.1238  145.0414  157.5739 O.2     1  UNL1       -0.4233
     27 C         142.8830  139.0534  164.9871 C.3     1  UNL1        0.1776
     28 C         144.5000  143.4815  162.6085 C.3     1  UNL1        0.0776
     29 C         144.4948  142.1174  163.2324 C.ar    1  UNL1        0.1838
     30 N         145.6816  141.2125  163.3836 N.ar    1  UNL1       -0.1123
     31 N         145.2222  139.9546  164.0593 N.ar    1  UNL1       -0.0451
     32 N         143.7516  140.0820  164.3258 N.ar    1  UNL1       -0.1467
     33 N         143.3021  141.4187  163.8147 N.ar    1  UNL1       -0.1339
@<TRIPOS>BOND
     1    28    29    1
     2    29    30   ar
     3    30    31   ar
     4    31    32   ar
     5    32    27    1
     6    27     1    1
     7     1     2   ar
     8     2     3   ar
     9     3     7    1
    10     7     8    1
    11     7     9    1
    12     7    10    1
    13     3     4   ar
    14     4     5   ar
    15     5     6   ar
    16     6    11    1
    17    11    12    2
    18    12    13    1
    19    13    14    2
    20    13    15   am
    21    15    16    1
    22    16    17    1
    23    17    18    1
    24    18    21    1
    25    21    22   ar
    26    22    23   ar
    27    23    24   ar
    28    24    25    1
    29    24    26   ar
    30    18    19    1
    31    19    20    1
    32    32    33   ar
    33    33    29   ar
    34     6     1   ar
    35    20    15    1
    36    26    21   ar
@<TRIPOS>MOLECULE
*****
 33 36 0 0 0
SMALL
GASTEIGER

@<TRIPOS>ATOM
      1 C         140.4359  143.5319  160.0595 C.ar    1  UNL1        0.0040
      2 C         140.4556  144.7369  159.1665 C.ar    1  UNL1        0.0016
      3 C         140.1015  144.6007  157.7153 C.ar    1  UNL1        0.0712
      4 C         139.7275  143.2596  157.1571 C.ar    1  UNL1        0.0038
      5 C         139.7077  142.0546  158.0502 C.ar    1  UNL1       -0.0003
      6 C         140.0619  142.1907  159.5014 C.ar    1  UNL1       -0.0019
      7 C         140.1212  145.8057  156.8222 C.3     1  UNL1        0.4186
      8 F         140.1409  147.0107  155.9291 F       1  UNL1       -0.1659
      9 F         138.8593  145.3363  156.1610 F       1  UNL1       -0.1659
     10 F         141.3831  146.2752  157.4833 F       1  UNL1       -0.1659
     11 C         140.0422  140.9857  160.3945 C.2     1  UNL1        0.0044
     12 C         138.7512  140.5245  161.0033 C.2     1  UNL1        0.0579
     13 C         138.7314  139.3195  161.8964 C.2     1  UNL1        0.2492
     14 O         138.5660  137.9507  161.3055 O.2     1  UNL1       -0.2699
     15 N         138.8769  139.4833  163.3803 N.am    1  UNL1       -0.2761
     16 C         139.0423  140.8521  163.9711 C.3     1  UNL1        0.0942
     17 C         139.1878  141.0159  165.4550 C.3     1  UNL1        0.0308
     18 C         139.1680  139.8109  166.3481 C.3     1  UNL1        0.0816
     19 C         139.0027  138.4421  165.7573 C.3     1  UNL1        0.0308
     20 C         138.8571  138.2783  164.2734 C.3     1  UNL1        0.0942
     21 C         139.3136  139.9747  167.8320 C.ar    1  UNL1        0.2257
     22 N         138.3449  139.4938  168.8714 N.ar    1  UNL1       -0.1117
     23 N         138.8860  139.8700  170.2188 N.ar    1  UNL1       -0.1117
     24 C         140.1892  140.5835  170.0122 C.ar    1  UNL1        0.2266
     25 C         141.0729  141.1354  171.0913 C.3     1  UNL1        0.0967
     26 O         140.4534  140.6482  168.5371 O.2     1  UNL1       -0.4233
     27 C         140.7901  143.6680  161.5108 C.3     1  UNL1        0.1776
     28 C         138.3697  145.0805  165.9860 C.3     1  UNL1        0.0776
     29 C         138.6117  144.6392  164.5729 C.ar    1  UNL1        0.1838
     30 N         137.5563  144.3313  163.5524 N.ar    1  UNL1       -0.1123
     31 N         138.2439  143.9300  162.2811 N.ar    1  UNL1       -0.0451
     32 N         139.7242  143.9899  162.5159 N.ar    1  UNL1       -0.1467
     33 N         139.9515  144.4282  163.9323 N.ar    1  UNL1       -0.1339
@<TRIPOS>BOND
     1    28    29    1
     2    29    30   ar
     3    30    31   ar
     4    31    32   ar
     5    32    27    1
     6    27     1    1
     7     1     2   ar
     8     2     3   ar
     9     3     7    1
    10     7     8    1
    11     7     9    1
    12     7    10    1
    13     3     4   ar
    14     4     5   ar
    15     5     6   ar
    16     6    11    1
    17    11    12    2
    18    12    13    1
    19    13    14    2
    20    13    15   am
    21    15    16    1
    22    16    17    1
    23    17    18    1
    24    18    21    1
    25    21    22   ar
    26    22    23   ar
    27    23    24   ar
    28    24    25    1
    29    24    26   ar
    30    18    19    1
    31    19    20    1
    32    32    33   ar
    33    33    29   ar
    34     6     1   ar
    35    20    15    1
    36    26    21   ar
@<TRIPOS>MOLECULE
*****
 33 36 0 0 0
SMALL
GASTEIGER

@<TRIPOS>ATOM
      1 C         140.5366  141.7072  166.2814 C.ar    1  UNL1        0.0040
      2 C         140.6278  142.2703  167.6686 C.ar    1  UNL1        0.0016
      3 C         140.0269  141.5234  168.8222 C.ar    1  UNL1        0.0712
      4 C         139.3349  140.2132  168.5886 C.ar    1  UNL1        0.0038
      5 C         139.2436  139.6501  167.2014 C.ar    1  UNL1       -0.0003
      6 C         139.8445  140.3970  166.0478 C.ar    1  UNL1       -0.0019
      7 C         140.1181  142.0865  170.2096 C.3     1  UNL1        0.4186
      8 F         140.2093  142.6496  171.5969 F       1  UNL1       -0.1659
      9 F         140.2245  140.6977  170.7663 F       1  UNL1       -0.1659
     10 F         140.0118  143.4753  169.6529 F       1  UNL1       -0.1659
     11 C         139.7533  139.8339  164.6604 C.2     1  UNL1        0.0044
     12 C         138.4280  139.7757  163.9603 C.2     1  UNL1        0.0579
     13 C         138.3368  139.2126  162.5730 C.2     1  UNL1        0.2492
     14 O         138.2005  137.7323  162.3718 O.2     1  UNL1       -0.2699
     15 N         138.3818  140.1296  161.3869 N.am    1  UNL1       -0.2761
     16 C         138.5180  141.6098  161.5880 C.3     1  UNL1        0.0942
     17 C         138.5630  142.5269  160.4018 C.3     1  UNL1        0.0308
     18 C         138.4718  141.9638  159.0145 C.3     1  UNL1        0.0816
     19 C         138.3355  140.4835  158.8134 C.3     1  UNL1        0.0308
     20 C         138.2905  139.5664  159.9995 C.3     1  UNL1        0.0942
     21 C         138.5168  142.8808  157.8284 C.ar    1  UNL1        0.2257
     22 N         139.6075  143.8609  157.5125 N.ar    1  UNL1       -0.1117
     23 N         139.2438  144.5646  156.2387 N.ar    1  UNL1       -0.1117
     24 C         137.9283  144.0195  155.7673 C.ar    1  UNL1        0.2266
     25 C         137.1914  144.4409  154.5306 C.3     1  UNL1        0.0967
     26 O         137.4790  142.9788  156.7498 O.2     1  UNL1       -0.4233
     27 C         141.1375  142.4542  165.1276 C.3     1  UNL1        0.1776
     28 C         139.6911  146.2418  161.7449 C.3     1  UNL1        0.0776
     29 C         139.6430  145.1797  162.8030 C.ar    1  UNL1        0.1838
     30 N         138.4194  144.7276  163.5436 N.ar    1  UNL1       -0.1123
     31 N         138.8304  143.6517  164.5046 N.ar    1  UNL1       -0.0451
     32 N         140.3079  143.4387  164.3579 N.ar    1  UNL1       -0.1467
     33 N         140.8101  144.3830  163.3063 N.ar    1  UNL1       -0.1339
@<TRIPOS>BOND
     1    28    29    1
     2    29    30   ar
     3    30    31   ar
     4    31    32   ar
     5    32    27    1
     6    27     1    1
     7     1     2   ar
     8     2     3   ar
     9     3     7    1
    10     7     8    1
    11     7     9    1
    12     7    10    1
    13     3     4   ar
    14     4     5   ar
    15     5     6   ar
    16     6    11    1
    17    11    12    2
    18    12    13    1
    19    13    14    2
    20    13    15   am
    21    15    16    1
    22    16    17    1
    23    17    18    1
    24    18    21    1
    25    21    22   ar
    26    22    23   ar
    27    23    24   ar
    28    24    25    1
    29    24    26   ar
    30    18    19    1
    31    19    20    1
    32    32    33   ar
    33    33    29   ar
    34     6     1   ar
    35    20    15    1
    36    26    21   ar
@<TRIPOS>MOLECULE
*****
 33 36 0 0 0
SMALL
GASTEIGER

@<TRIPOS>ATOM
      1 C         140.8139  140.6407  166.8213 C.ar    1  UNL1        0.0040
      2 C         140.0557  141.2012  167.9879 C.ar    1  UNL1        0.0016
      3 C         140.7055  142.2071  168.8912 C.ar    1  UNL1        0.0712
      4 C         142.1135  142.6524  168.6280 C.ar    1  UNL1        0.0038
      5 C         142.8716  142.0919  167.4614 C.ar    1  UNL1       -0.0003
      6 C         142.2219  141.0861  166.5581 C.ar    1  UNL1       -0.0019
      7 C         139.9473  142.7676  170.0578 C.3     1  UNL1        0.4186
      8 F         139.1892  143.3282  171.2244 F       1  UNL1       -0.1659
      9 F         140.6813  144.0674  169.9103 F       1  UNL1       -0.1659
     10 F         139.2133  141.4679  170.2054 F       1  UNL1       -0.1659
     11 C         142.9801  140.5255  165.3914 C.2     1  UNL1        0.0044
     12 C         143.2010  141.3643  164.1677 C.2     1  UNL1        0.0579
     13 C         143.9592  140.8038  163.0011 C.2     1  UNL1        0.2492
     14 O         145.4584  140.8529  162.9874 O.2     1  UNL1       -0.2699
     15 N         143.2182  140.1943  161.8481 N.am    1  UNL1       -0.2761
     16 C         141.7191  140.1452  161.8616 C.3     1  UNL1        0.0942
     17 C         140.9782  139.5357  160.7086 C.3     1  UNL1        0.0308
     18 C         141.7363  138.9752  159.5420 C.3     1  UNL1        0.0816
     19 C         143.2355  139.0242  159.5284 C.3     1  UNL1        0.0308
     20 C         143.9765  139.6338  160.6814 C.3     1  UNL1        0.0942
     21 C         140.9954  138.3656  158.3890 C.ar    1  UNL1        0.2257
     22 N         139.5366  138.5406  158.0869 N.ar    1  UNL1       -0.1117
     23 N         139.2227  137.7572  156.8469 N.ar    1  UNL1       -0.1117
     24 C         140.4876  137.0980  156.3825 C.ar    1  UNL1        0.2266
     25 C         140.6316  136.2174  155.1768 C.3     1  UNL1        0.0967
     26 O         141.5831  137.4741  157.3356 O.2     1  UNL1       -0.4233
     27 C         140.1641  139.6349  165.9179 C.3     1  UNL1        0.1776
     28 C         137.9344  142.7084  162.2487 C.3     1  UNL1        0.0776
     29 C         138.3223  141.5083  163.0607 C.ar    1  UNL1        0.1838
     30 N         137.8577  140.1006  162.8309 N.ar    1  UNL1       -0.1123
     31 N         138.4912  139.2275  163.8733 N.ar    1  UNL1       -0.0451
     32 N         139.3472  140.0955  164.7473 N.ar    1  UNL1       -0.1467
     33 N         139.2428  141.5051  164.2451 N.ar    1  UNL1       -0.1339
@<TRIPOS>BOND
     1    28    29    1
     2    29    30   ar
     3    30    31   ar
     4    31    32   ar
     5    32    27    1
     6    27     1    1
     7     1     2   ar
     8     2     3   ar
     9     3     7    1
    10     7     8    1
    11     7     9    1
    12     7    10    1
    13     3     4   ar
    14     4     5   ar
    15     5     6   ar
    16     6    11    1
    17    11    12    2
    18    12    13    1
    19    13    14    2
    20    13    15   am
    21    15    16    1
    22    16    17    1
    23    17    18    1
    24    18    21    1
    25    21    22   ar
    26    22    23   ar
    27    23    24   ar
    28    24    25    1
    29    24    26   ar
    30    18    19    1
    31    19    20    1
    32    32    33   ar
    33    33    29   ar
    34     6     1   ar
    35    20    15    1
    36    26    21   ar
@<TRIPOS>MOLECULE
*****
 33 36 0 0 0
SMALL
GASTEIGER

@<TRIPOS>ATOM
      1 C         139.2961  140.4063  166.0760 C.ar    1  UNL1        0.0040
      2 C         139.3160  139.8593  167.4725 C.ar    1  UNL1        0.0016
      3 C         139.8310  140.7027  168.6010 C.ar    1  UNL1        0.0712
      4 C         140.3259  142.0931  168.3330 C.ar    1  UNL1        0.0038
      5 C         140.3060  142.6401  166.9365 C.ar    1  UNL1       -0.0003
      6 C         139.7911  141.7967  165.8080 C.ar    1  UNL1       -0.0019
      7 C         139.8509  140.1557  169.9977 C.3     1  UNL1        0.4186
      8 F         139.8708  139.6088  171.3942 F       1  UNL1       -0.1659
      9 F         138.5103  140.7754  170.2595 F       1  UNL1       -0.1659
     10 F         141.1916  139.5360  169.7358 F       1  UNL1       -0.1659
     11 C         139.7711  142.3437  164.4113 C.2     1  UNL1        0.0044
     12 C         138.4665  142.7099  163.7679 C.2     1  UNL1        0.0579
     13 C         138.4465  143.2569  162.3714 C.2     1  UNL1        0.2492
     14 O         138.2987  144.7325  162.1458 O.2     1  UNL1       -0.2699
     15 N         138.5743  142.3283  161.2003 N.am    1  UNL1       -0.2761
     16 C         138.7221  140.8527  161.4258 C.3     1  UNL1        0.0942
     17 C         138.8499  139.9242  160.2547 C.3     1  UNL1        0.0308
     18 C         138.8298  140.4711  158.8581 C.3     1  UNL1        0.0816
     19 C         138.6821  141.9467  158.6326 C.3     1  UNL1        0.0308
     20 C         138.5543  142.8753  159.8037 C.3     1  UNL1        0.0942
     21 C         138.9576  139.5425  157.6871 C.ar    1  UNL1        0.2257
     22 N         138.1353  139.5863  156.4333 N.ar    1  UNL1       -0.1117
     23 N         138.5996  138.4780  155.5355 N.ar    1  UNL1       -0.1117
     24 C         139.7089  137.7492  156.2344 C.ar    1  UNL1        0.2266
     25 C         140.4643  136.5696  155.6978 C.3     1  UNL1        0.0967
     26 O         139.9301  138.4071  157.5641 O.2     1  UNL1       -0.4233
     27 C         138.7812  139.5629  164.9474 C.3     1  UNL1        0.1776
     28 C         143.1903  138.1360  162.4169 C.3     1  UNL1        0.0776
     29 C         141.7694  138.1747  162.8959 C.ar    1  UNL1        0.1838
     30 N         140.6755  137.2328  162.4882 N.ar    1  UNL1       -0.1123
     31 N         139.4230  137.6382  163.2071 N.ar    1  UNL1       -0.0451
     32 N         139.7427  138.8307  164.0591 N.ar    1  UNL1       -0.1467
     33 N         141.1929  139.1622  163.8667 N.ar    1  UNL1       -0.1339
@<TRIPOS>BOND
     1    28    29    1
     2    29    30   ar
     3    30    31   ar
     4    31    32   ar
     5    32    27    1
     6    27     1    1
     7     1     2   ar
     8     2     3   ar
     9     3     7    1
    10     7     8    1
    11     7     9    1
    12     7    10    1
    13     3     4   ar
    14     4     5   ar
    15     5     6   ar
    16     6    11    1
    17    11    12    2
    18    12    13    1
    19    13    14    2
    20    13    15   am
    21    15    16    1
    22    16    17    1
    23    17    18    1
    24    18    21    1
    25    21    22   ar
    26    22    23   ar
    27    23    24   ar
    28    24    25    1
    29    24    26   ar
    30    18    19    1
    31    19    20    1
    32    32    33   ar
    33    33    29   ar
    34     6     1   ar
    35    20    15    1
    36    26    21   ar
@<TRIPOS>MOLECULE
*****
 33 36 0 0 0
SMALL
GASTEIGER

@<TRIPOS>ATOM
      1 C         140.7856  141.7183  166.7801 C.ar    1  UNL1        0.0040
      2 C         141.3400  142.5532  167.8962 C.ar    1  UNL1        0.0016
      3 C         142.3172  141.9564  168.8651 C.ar    1  UNL1        0.0712
      4 C         142.7401  140.5248  168.7179 C.ar    1  UNL1        0.0038
      5 C         142.1858  139.6900  167.6018 C.ar    1  UNL1       -0.0003
      6 C         141.2085  140.2867  166.6329 C.ar    1  UNL1       -0.0019
      7 C         142.8716  142.7913  169.9812 C.3     1  UNL1        0.4186
      8 F         143.4260  143.6261  171.0973 F       1  UNL1       -0.1659
      9 F         141.6278  143.6296  169.9719 F       1  UNL1       -0.1659
     10 F         144.1154  141.9530  169.9905 F       1  UNL1       -0.1659
     11 C         140.6541  139.4519  165.5168 C.2     1  UNL1        0.0044
     12 C         141.4384  139.2769  164.2502 C.2     1  UNL1        0.0579
     13 C         140.8841  138.4421  163.1340 C.2     1  UNL1        0.2492
     14 O         141.0254  136.9492  163.1724 O.2     1  UNL1       -0.2699
     15 N         140.1883  139.1001  161.9795 N.am    1  UNL1       -0.2761
     16 C         140.0469  140.5929  161.9410 C.3     1  UNL1        0.0942
     17 C         139.3512  141.2509  160.7865 C.3     1  UNL1        0.0308
     18 C         138.7968  140.4161  159.6704 C.3     1  UNL1        0.0816
     19 C         138.9382  138.9232  159.7088 C.3     1  UNL1        0.0308
     20 C         139.6340  138.2652  160.8633 C.3     1  UNL1        0.0942
     21 C         138.1011  141.0741  158.5158 C.ar    1  UNL1        0.2257
     22 N         138.3579  142.4612  158.0061 N.ar    1  UNL1       -0.1117
     23 N         137.4419  142.7049  156.8435 N.ar    1  UNL1       -0.1117
     24 C         136.6190  141.4683  156.6347 C.ar    1  UNL1        0.2266
     25 C         135.5724  141.2738  155.5779 C.3     1  UNL1        0.0967
     26 O         137.0264  140.4604  157.6682 O.2     1  UNL1       -0.4233
     27 C         139.8083  142.3151  165.8111 C.3     1  UNL1        0.1776
     28 C         139.8360  145.9384  161.9703 C.3     1  UNL1        0.0776
     29 C         140.2920  144.9630  163.0147 C.ar    1  UNL1        0.1838
     30 N         141.7160  144.6559  163.3724 N.ar    1  UNL1       -0.1123
     31 N         141.7081  143.6266  164.4635 N.ar    1  UNL1       -0.0451
     32 N         140.2792  143.2976  164.7801 N.ar    1  UNL1       -0.1467
     33 N         139.4041  144.1236  163.8847 N.ar    1  UNL1       -0.1339
@<TRIPOS>BOND
     1    28    29    1
     2    29    30   ar
     3    30    31   ar
     4    31    32   ar
     5    32    27    1
     6    27     1    1
     7     1     2   ar
     8     2     3   ar
     9     3     7    1
    10     7     8    1
    11     7     9    1
    12     7    10    1
    13     3     4   ar
    14     4     5   ar
    15     5     6   ar
    16     6    11    1
    17    11    12    2
    18    12    13    1
    19    13    14    2
    20    13    15   am
    21    15    16    1
    22    16    17    1
    23    17    18    1
    24    18    21    1
    25    21    22   ar
    26    22    23   ar
    27    23    24   ar
    28    24    25    1
    29    24    26   ar
    30    18    19    1
    31    19    20    1
    32    32    33   ar
    33    33    29   ar
    34     6     1   ar
    35    20    15    1
    36    26    21   ar
@<TRIPOS>MOLECULE
*****
 33 36 0 0 0
SMALL
GASTEIGER

@<TRIPOS>ATOM
      1 C         139.5635  141.0163  165.0610 C.ar    1  UNL1        0.0040
      2 C         138.7301  140.1526  165.9606 C.ar    1  UNL1        0.0016
      3 C         138.6863  138.6687  165.7458 C.ar    1  UNL1        0.0712
      4 C         139.4760  138.0485  164.6315 C.ar    1  UNL1        0.0038
      5 C         140.3095  138.9122  163.7319 C.ar    1  UNL1       -0.0003
      6 C         140.3533  140.3961  163.9467 C.ar    1  UNL1       -0.0019
      7 C         137.8528  137.8050  166.6455 C.3     1  UNL1        0.4186
      8 F         137.0193  136.9413  167.5450 F       1  UNL1       -0.1659
      9 F         137.5048  139.0051  167.4753 F       1  UNL1       -0.1659
     10 F         138.2007  136.6049  165.8156 F       1  UNL1       -0.1659
     11 C         141.1868  141.2598  163.0471 C.2     1  UNL1        0.0044
     12 C         141.6049  140.7540  161.6982 C.2     1  UNL1        0.0579
     13 C         142.4383  141.6177  160.7986 C.2     1  UNL1        0.2492
     14 O         143.9350  141.5336  160.8539 O.2     1  UNL1       -0.2699
     15 N         141.7752  142.5656  159.8437 N.am    1  UNL1       -0.2761
     16 C         140.2786  142.6497  159.7884 C.3     1  UNL1        0.0942
     17 C         139.6155  143.5976  158.8335 C.3     1  UNL1        0.0308
     18 C         140.4490  144.4613  157.9339 C.3     1  UNL1        0.0816
     19 C         141.9457  144.3771  157.9892 C.3     1  UNL1        0.0308
     20 C         142.6088  143.4293  158.9441 C.3     1  UNL1        0.0942
     21 C         139.7859  145.4091  156.9789 C.ar    1  UNL1        0.2257
     22 N         138.9634  145.0258  155.7846 N.ar    1  UNL1       -0.1117
     23 N         138.4980  146.2865  155.1182 N.ar    1  UNL1       -0.1117
     24 C         139.0330  147.4490  155.9007 C.ar    1  UNL1        0.2266
     25 C         138.8110  148.8992  155.5881 C.3     1  UNL1        0.0967
     26 O         139.8289  146.9068  157.0507 O.2     1  UNL1       -0.4233
     27 C         139.6073  142.5002  165.2757 C.3     1  UNL1        0.1776
     28 C         139.6866  146.3634  161.6770 C.3     1  UNL1        0.0776
     29 C         139.2356  145.2058  162.5175 C.ar    1  UNL1        0.1838
     30 N         137.9064  144.5163  162.4282 N.ar    1  UNL1       -0.1123
     31 N         137.8839  143.4189  163.4505 N.ar    1  UNL1       -0.0451
     32 N         139.1991  143.4301  164.1717 N.ar    1  UNL1       -0.1467
     33 N         140.0345  144.5345  163.5951 N.ar    1  UNL1       -0.1339
@<TRIPOS>BOND
     1    28    29    1
     2    29    30   ar
     3    30    31   ar
     4    31    32   ar
     5    32    27    1
     6    27     1    1
     7     1     2   ar
     8     2     3   ar
     9     3     7    1
    10     7     8    1
    11     7     9    1
    12     7    10    1
    13     3     4   ar
    14     4     5   ar
    15     5     6   ar
    16     6    11    1
    17    11    12    2
    18    12    13    1
    19    13    14    2
    20    13    15   am
    21    15    16    1
    22    16    17    1
    23    17    18    1
    24    18    21    1
    25    21    22   ar
    26    22    23   ar
    27    23    24   ar
    28    24    25    1
    29    24    26   ar
    30    18    19    1
    31    19    20    1
    32    32    33   ar
    33    33    29   ar
    34     6     1   ar
    35    20    15    1
    36    26    21   ar
@<TRIPOS>MOLECULE
*****
 33 36 0 0 0
SMALL
GASTEIGER

@<TRIPOS>ATOM
      1 C         139.9400  140.7682  165.9186 C.ar    1  UNL1        0.0040
      2 C         140.2423  140.8406  167.3860 C.ar    1  UNL1        0.0016
      3 C         139.4209  140.0501  168.3608 C.ar    1  UNL1        0.0712
      4 C         138.2972  139.1871  167.8682 C.ar    1  UNL1        0.0038
      5 C         137.9949  139.1148  166.4008 C.ar    1  UNL1       -0.0003
      6 C         138.8163  139.9053  165.4260 C.ar    1  UNL1       -0.0019
      7 C         139.7232  140.1224  169.8283 C.3     1  UNL1        0.4186
      8 F         140.0254  140.1947  171.2957 F       1  UNL1       -0.1659
      9 F         138.2954  140.4903  170.1042 F       1  UNL1       -0.1659
     10 F         141.1509  139.7545  169.5524 F       1  UNL1       -0.1659
     11 C         138.5140  139.8330  163.9585 C.2     1  UNL1        0.0044
     12 C         139.0177  138.6777  163.1450 C.2     1  UNL1        0.0579
     13 C         138.7154  138.6054  161.6776 C.2     1  UNL1        0.2492
     14 O         137.3097  138.3655  161.2123 O.2     1  UNL1       -0.2699
     15 N         139.8189  138.7728  160.6754 N.am    1  UNL1       -0.2761
     16 C         141.2246  139.0126  161.1407 C.3     1  UNL1        0.0942
     17 C         142.3280  139.1801  160.1385 C.3     1  UNL1        0.0308
     18 C         142.0258  139.1077  158.6710 C.3     1  UNL1        0.0816
     19 C         140.6200  138.8679  158.2057 C.3     1  UNL1        0.0308
     20 C         139.5166  138.7004  159.2079 C.3     1  UNL1        0.0942
     21 C         143.1292  139.2752  157.6688 C.ar    1  UNL1        0.2257
     22 N         143.6128  138.2305  156.7072 N.ar    1  UNL1       -0.1117
     23 N         144.7253  138.8264  155.8963 N.ar    1  UNL1       -0.1117
     24 C         144.9292  140.2393  156.3569 C.ar    1  UNL1        0.2266
     25 C         145.9417  141.2053  155.8168 C.3     1  UNL1        0.0967
     26 O         143.9427  140.5166  157.4524 O.2     1  UNL1       -0.4233
     27 C         140.7614  141.5588  164.9437 C.3     1  UNL1        0.1776
     28 C         145.8974  141.5968  163.7184 C.3     1  UNL1        0.0776
     29 C         144.5078  141.1235  164.0269 C.ar    1  UNL1        0.1838
     30 N         144.0509  139.6953  164.0650 N.ar    1  UNL1       -0.1123
     31 N         142.5919  139.6845  164.4131 N.ar    1  UNL1       -0.0451
     32 N         142.1470  141.1061  164.5901 N.ar    1  UNL1       -0.1467
     33 N         143.3311  141.9954  164.3514 N.ar    1  UNL1       -0.1339
@<TRIPOS>BOND
     1    28    29    1
     2    29    30   ar
     3    30    31   ar
     4    31    32   ar
     5    32    27    1
     6    27     1    1
     7     1     2   ar
     8     2     3   ar
     9     3     7    1
    10     7     8    1
    11     7     9    1
    12     7    10    1
    13     3     4   ar
    14     4     5   ar
    15     5     6   ar
    16     6    11    1
    17    11    12    2
    18    12    13    1
    19    13    14    2
    20    13    15   am
    21    15    16    1
    22    16    17    1
    23    17    18    1
    24    18    21    1
    25    21    22   ar
    26    22    23   ar
    27    23    24   ar
    28    24    25    1
    29    24    26   ar
    30    18    19    1
    31    19    20    1
    32    32    33   ar
    33    33    29   ar
    34     6     1   ar
    35    20    15    1
    36    26    21   ar
