@<TRIPOS>MOLECULE
*****
 32 36 0 0 0
SMALL
GASTEIGER

@<TRIPOS>ATOM
      1 C         141.7728  142.8863  155.3764 C.3     1  UNL1        0.0295
      2 C         141.4977  142.5939  156.8217 C.3     1  UNL1        0.1094
      3 C         141.8471  141.1371  156.8972 C.ar    1  UNL1        0.0013
      4 C         142.3542  140.0556  155.9267 C.ar    1  UNL1       -0.0016
      5 C         142.6800  138.6014  156.0974 C.ar    1  UNL1        0.0131
      6 C         142.5207  137.9496  157.4389 C.ar    1  UNL1        0.1028
      7 C         142.0356  138.7519  158.6098 C.ar    1  UNL1        0.1545
      8 C         142.0360  139.7880  157.5251 C.ar    1  UNL1        0.0357
      9 O         141.8460  138.1867  159.9862 O.3     1  UNL1       -0.4528
     10 C         141.3847  138.3624  161.7136 C.ar    1  UNL1        0.1451
     11 C         141.4808  137.1465  162.5866 C.ar    1  UNL1        0.0375
     12 C         141.1088  137.2335  164.0371 C.ar    1  UNL1        0.0029
     13 C         140.6407  138.5363  164.6146 C.ar    1  UNL1       -0.0024
     14 C         140.5446  139.7522  163.7415 C.ar    1  UNL1        0.0007
     15 C         140.9166  139.6653  162.2910 C.ar    1  UNL1        0.0349
     16 C         140.0879  141.0949  164.2300 C.3     1  UNL1        0.1203
     17 N         139.7385  142.5517  164.1546 N.am    1  UNL1       -0.2743
     18 C         139.2475  143.6905  164.9983 C.3     1  UNL1        0.0957
     19 C         139.1514  144.9065  164.1252 C.3     1  UNL1        0.0466
     20 C         139.5500  144.9369  162.4420 C.3     1  UNL1        0.1337
     21 N         139.7396  145.5021  161.0655 N.3     1  UNL1       -0.2863
     22 C         140.0895  145.5104  159.6069 C.3     1  UNL1        0.1151
     23 C         140.5465  144.9607  158.2883 C.ar    1  UNL1        0.0738
     24 C         140.3941  146.2626  157.5588 C.ar    1  UNL1        0.1147
     25 N         140.7944  146.0429  156.1299 N.ar    1  UNL1       -0.2226
     26 C         141.1942  144.6053  155.9764 C.ar    1  UNL1        0.1786
     27 N         141.0410  143.9366  157.3102 N.ar    1  UNL1       -0.3092
     28 C         139.5496  143.9008  163.5267 C.2     1  UNL1        0.2402
     29 O         139.3119  144.1582  164.2427 O.2     1  UNL1       -0.2734
     30 H         140.3645  146.2608  161.3379 H       1  UNL1        0.1240
     31 C         142.8464  136.4953  157.6096 C.1     1  UNL1        0.1035
     32 N         143.1722  135.0411  157.7803 N.1     1  UNL1       -0.1907
@<TRIPOS>BOND
     1     1     2    1
     2     2     3    1
     3     3     4   ar
     4     4     5   ar
     5     5     6   ar
     6     6    31    1
     7    31    32    3
     8     6     7   ar
     9     7     8   ar
    10     7     9    1
    11     9    10    1
    12    10    11   ar
    13    11    12   ar
    14    12    13   ar
    15    13    14   ar
    16    14    15   ar
    17    14    16    1
    18    16    17    1
    19    17    18    1
    20    18    19    1
    21    20    19    1
    22    20    21    1
    23    21    22    1
    24    22    23    1
    25    23    24   ar
    26    24    25   ar
    27    25    26   ar
    28    26    27   ar
    29    20    28    1
    30    28    29    2
    31    27     2    1
    32     8     3   ar
    33    15    10   ar
    34    28    17   am
    35    27    23   ar
    36    21    30    1
@<TRIPOS>MOLECULE
*****
 32 36 0 0 0
SMALL
GASTEIGER

@<TRIPOS>ATOM
      1 C         141.9548  143.4878  153.0075 C.3     1  UNL1        0.0295
      2 C         141.9681  143.2843  154.4936 C.3     1  UNL1        0.1094
      3 C         141.2148  144.4942  154.9615 C.ar    1  UNL1        0.0013
      4 C         140.5375  145.7127  154.3095 C.ar    1  UNL1       -0.0016
      5 C         139.7965  146.8905  154.8694 C.ar    1  UNL1        0.0131
      6 C         139.6099  147.0237  156.3518 C.ar    1  UNL1        0.1028
      7 C         140.1643  145.9790  157.2743 C.ar    1  UNL1        0.1545
      8 C         140.5814  145.4404  155.9379 C.ar    1  UNL1        0.0357
      9 O         140.0271  146.0279  158.7672 O.3     1  UNL1       -0.4528
     10 C         140.3178  145.3400  160.4011 C.ar    1  UNL1        0.1451
     11 C         139.7823  146.0969  161.5802 C.ar    1  UNL1        0.0375
     12 C         139.9947  145.5706  162.9686 C.ar    1  UNL1        0.0029
     13 C         140.7426  144.2873  163.1780 C.ar    1  UNL1       -0.0024
     14 C         141.2781  143.5304  161.9990 C.ar    1  UNL1        0.0007
     15 C         141.0657  144.0567  160.6105 C.ar    1  UNL1        0.0349
     16 C         142.0367  142.2411  162.1110 C.3     1  UNL1        0.1203
     17 N         142.7900  141.0313  161.6432 N.am    1  UNL1       -0.2743
     18 C         143.4828  139.8038  162.1561 C.3     1  UNL1        0.0957
     19 C         144.0183  139.0469  160.9771 C.3     1  UNL1        0.0466
     20 C         143.8405  139.5465  159.3303 C.3     1  UNL1        0.1337
     21 N         143.9777  139.4976  157.8374 N.3     1  UNL1       -0.2863
     22 C         143.8142  139.9458  156.4152 C.3     1  UNL1        0.1151
     23 C         143.3749  140.8228  155.2804 C.ar    1  UNL1        0.0738
     24 C         143.9719  139.9483  154.2179 C.ar    1  UNL1        0.1147
     25 N         143.6926  140.5802  152.8865 N.ar    1  UNL1       -0.2226
     26 C         142.9230  141.8452  153.1262 C.ar    1  UNL1        0.1786
     27 N         142.7267  141.9951  154.6056 N.ar    1  UNL1       -0.3092
     28 C         143.4234  140.0851  160.6667 C.2     1  UNL1        0.2402
     29 O         143.6404  139.6438  161.2940 O.2     1  UNL1       -0.2734
     30 H         143.5659  138.5726  157.7144 H       1  UNL1        0.1240
     31 C         138.8689  148.2016  156.9116 C.1     1  UNL1        0.1035
     32 N         138.1279  149.3795  157.4715 N.1     1  UNL1       -0.1907
@<TRIPOS>BOND
     1     1     2    1
     2     2     3    1
     3     3     4   ar
     4     4     5   ar
     5     5     6   ar
     6     6    31    1
     7    31    32    3
     8     6     7   ar
     9     7     8   ar
    10     7     9    1
    11     9    10    1
    12    10    11   ar
    13    11    12   ar
    14    12    13   ar
    15    13    14   ar
    16    14    15   ar
    17    14    16    1
    18    16    17    1
    19    17    18    1
    20    18    19    1
    21    20    19    1
    22    20    21    1
    23    21    22    1
    24    22    23    1
    25    23    24   ar
    26    24    25   ar
    27    25    26   ar
    28    26    27   ar
    29    20    28    1
    30    28    29    2
    31    27     2    1
    32     8     3   ar
    33    15    10   ar
    34    28    17   am
    35    27    23   ar
    36    21    30    1
@<TRIPOS>MOLECULE
*****
 32 36 0 0 0
SMALL
GASTEIGER

@<TRIPOS>ATOM
      1 C         141.5293  139.4077  154.6895 C.3     1  UNL1        0.0295
      2 C         141.5349  139.8580  156.1203 C.3     1  UNL1        0.1094
      3 C         141.0299  141.2642  155.9867 C.ar    1  UNL1        0.0013
      4 C         140.5784  142.1874  154.8411 C.ar    1  UNL1       -0.0016
      5 C         140.0815  143.6022  154.8048 C.ar    1  UNL1        0.0131
      6 C         139.9533  144.3850  156.0779 C.ar    1  UNL1        0.1028
      7 C         140.3220  143.7530  157.3873 C.ar    1  UNL1        0.1545
      8 C         140.6041  142.6318  156.4315 C.ar    1  UNL1        0.0357
      9 O         140.2268  144.4568  158.7085 O.3     1  UNL1       -0.4528
     10 C         140.4175  144.4911  160.4946 C.ar    1  UNL1        0.1451
     11 C         140.0566  145.7599  161.2086 C.ar    1  UNL1        0.0375
     12 C         140.1955  145.8469  162.6996 C.ar    1  UNL1        0.0029
     13 C         140.6952  144.6651  163.4765 C.ar    1  UNL1       -0.0024
     14 C         141.0561  143.3964  162.7625 C.ar    1  UNL1        0.0007
     15 C         140.9173  143.3094  161.2715 C.ar    1  UNL1        0.0349
     16 C         141.5632  142.1659  163.4545 C.3     1  UNL1        0.1203
     17 N         142.0681  140.7598  163.5883 N.am    1  UNL1       -0.2743
     18 C         142.5303  139.7666  164.6129 C.3     1  UNL1        0.0957
     19 C         142.8912  138.4978  163.8988 C.3     1  UNL1        0.0466
     20 C         142.7760  138.2709  162.1875 C.3     1  UNL1        0.1337
     21 N         142.8712  137.5671  160.8663 N.3     1  UNL1       -0.2863
     22 C         142.7651  137.3878  159.3808 C.3     1  UNL1        0.1151
     23 C         142.4739  137.7601  157.9573 C.ar    1  UNL1        0.0738
     24 C         142.8757  136.4258  157.4021 C.ar    1  UNL1        0.1147
     25 N         142.6919  136.4687  155.9139 N.ar    1  UNL1       -0.2226
     26 C         142.1766  137.8294  155.5496 C.ar    1  UNL1        0.1786
     27 N         142.0419  138.6276  156.8124 N.ar    1  UNL1       -0.3092
     28 C         142.4940  139.3921  163.1433 C.2     1  UNL1        0.2402
     29 O         142.6377  139.2293  163.9104 O.2     1  UNL1       -0.2734
     30 H         142.2918  136.7670  161.1203 H       1  UNL1        0.1240
     31 C         139.4564  145.7999  156.0416 C.1     1  UNL1        0.1035
     32 N         138.9595  147.2147  156.0053 N.1     1  UNL1       -0.1907
@<TRIPOS>BOND
     1     1     2    1
     2     2     3    1
     3     3     4   ar
     4     4     5   ar
     5     5     6   ar
     6     6    31    1
     7    31    32    3
     8     6     7   ar
     9     7     8   ar
    10     7     9    1
    11     9    10    1
    12    10    11   ar
    13    11    12   ar
    14    12    13   ar
    15    13    14   ar
    16    14    15   ar
    17    14    16    1
    18    16    17    1
    19    17    18    1
    20    18    19    1
    21    20    19    1
    22    20    21    1
    23    21    22    1
    24    22    23    1
    25    23    24   ar
    26    24    25   ar
    27    25    26   ar
    28    26    27   ar
    29    20    28    1
    30    28    29    2
    31    27     2    1
    32     8     3   ar
    33    15    10   ar
    34    28    17   am
    35    27    23   ar
    36    21    30    1
@<TRIPOS>MOLECULE
*****
 32 36 0 0 0
SMALL
GASTEIGER

@<TRIPOS>ATOM
      1 C         140.3486  146.3276  157.6141 C.3     1  UNL1        0.0295
      2 C         140.6438  144.9224  158.0482 C.3     1  UNL1        0.1094
      3 C         140.3132  144.9920  159.5097 C.ar    1  UNL1        0.0013
      4 C         139.8082  146.0623  160.4936 C.ar    1  UNL1       -0.0016
      5 C         139.5022  146.0371  161.9618 C.ar    1  UNL1        0.0131
      6 C         139.6849  144.7705  162.7444 C.ar    1  UNL1        0.1028
      7 C         140.1735  143.5291  162.0587 C.ar    1  UNL1        0.1545
      8 C         140.1480  144.5028  160.9179 C.ar    1  UNL1        0.0357
      9 O         140.3858  142.2193  162.7583 O.3     1  UNL1       -0.4528
     10 C         140.8648  140.4879  162.7528 C.ar    1  UNL1        0.1451
     11 C         140.7936  139.7421  164.0523 C.ar    1  UNL1        0.0375
     12 C         141.1812  138.2942  164.1083 C.ar    1  UNL1        0.0029
     13 C         141.6400  137.5920  162.8647 C.ar    1  UNL1       -0.0024
     14 C         141.7112  138.3377  161.5652 C.ar    1  UNL1        0.0007
     15 C         141.3236  139.7857  161.5093 C.ar    1  UNL1        0.0349
     16 C         142.1570  137.7199  160.2731 C.3     1  UNL1        0.1203
     17 N         142.4877  137.6502  158.8117 N.am    1  UNL1       -0.2743
     18 C         142.9744  136.7001  157.7580 C.3     1  UNL1        0.0957
     19 C         143.0456  137.4459  156.4585 C.3     1  UNL1        0.0466
     20 C         142.6273  139.1132  156.2626 C.3     1  UNL1        0.1337
     21 N         142.4150  140.4230  155.5630 N.3     1  UNL1       -0.2863
     22 C         142.0482  141.8695  155.4112 C.3     1  UNL1        0.1151
     23 C         141.5828  143.2325  155.8301 C.ar    1  UNL1        0.0738
     24 C         141.7110  143.8272  154.4590 C.ar    1  UNL1        0.1147
     25 N         141.2970  145.2669  154.5376 N.ar    1  UNL1       -0.2226
     26 C         140.9130  145.5618  155.9574 C.ar    1  UNL1        0.1786
     27 N         141.0897  144.3046  156.7561 N.ar    1  UNL1       -0.3092
     28 C         142.6528  138.1395  157.4034 C.2     1  UNL1        0.2402
     29 O         142.8956  137.4035  157.2169 O.2     1  UNL1       -0.2734
     30 H         141.7840  140.0684  154.8443 H       1  UNL1        0.1240
     31 C         139.3789  144.7454  164.2127 C.1     1  UNL1        0.1035
     32 N         139.0729  144.7203  165.6809 N.1     1  UNL1       -0.1907
@<TRIPOS>BOND
     1     1     2    1
     2     2     3    1
     3     3     4   ar
     4     4     5   ar
     5     5     6   ar
     6     6    31    1
     7    31    32    3
     8     6     7   ar
     9     7     8   ar
    10     7     9    1
    11     9    10    1
    12    10    11   ar
    13    11    12   ar
    14    12    13   ar
    15    13    14   ar
    16    14    15   ar
    17    14    16    1
    18    16    17    1
    19    17    18    1
    20    18    19    1
    21    20    19    1
    22    20    21    1
    23    21    22    1
    24    22    23    1
    25    23    24   ar
    26    24    25   ar
    27    25    26   ar
    28    26    27   ar
    29    20    28    1
    30    28    29    2
    31    27     2    1
    32     8     3   ar
    33    15    10   ar
    34    28    17   am
    35    27    23   ar
    36    21    30    1
@<TRIPOS>MOLECULE
*****
 32 36 0 0 0
SMALL
GASTEIGER

@<TRIPOS>ATOM
      1 C         140.6271  141.8516  154.0151 C.3     1  UNL1        0.0295
      2 C         140.7984  141.9092  155.5042 C.3     1  UNL1        0.1094
      3 C         141.2849  140.5208  155.7968 C.ar    1  UNL1        0.0013
      4 C         141.5933  139.2487  154.9874 C.ar    1  UNL1       -0.0016
      5 C         142.0839  137.8852  155.3749 C.ar    1  UNL1        0.0131
      6 C         142.3689  137.5716  156.8138 C.ar    1  UNL1        0.1028
      7 C         142.1633  138.6214  157.8652 C.ar    1  UNL1        0.1545
      8 C         141.7642  139.3664  156.6259 C.ar    1  UNL1        0.0357
      9 O         142.4214  138.3996  159.3261 O.3     1  UNL1       -0.4528
     10 C         142.4520  138.9755  161.0275 C.ar    1  UNL1        0.1451
     11 C         142.8997  138.0072  162.0819 C.ar    1  UNL1        0.0375
     12 C         142.9456  138.4323  163.5196 C.ar    1  UNL1        0.0029
     13 C         142.5436  139.8257  163.9030 C.ar    1  UNL1       -0.0024
     14 C         142.0958  140.7940  162.8486 C.ar    1  UNL1        0.0007
     15 C         142.0500  140.3689  161.4108 C.ar    1  UNL1        0.0349
     16 C         141.6761  142.2049  163.1370 C.3     1  UNL1        0.1203
     17 N         141.1895  143.5933  162.8444 N.am    1  UNL1       -0.2743
     18 C         140.8556  144.8910  163.5184 C.3     1  UNL1        0.0957
     19 C         140.4078  145.8593  162.4640 C.3     1  UNL1        0.0466
     20 C         140.3111  145.4927  160.7760 C.3     1  UNL1        0.1337
     21 N         140.0531  145.7145  159.3151 N.3     1  UNL1       -0.2863
     22 C         139.9753  145.3795  157.8550 C.3     1  UNL1        0.1151
     23 C         140.0896  144.5388  156.6181 C.ar    1  UNL1        0.0738
     24 C         139.6207  145.6238  155.6945 C.ar    1  UNL1        0.1147
     25 N         139.6200  145.0757  154.2982 N.ar    1  UNL1       -0.2226
     26 C         140.0884  143.6520  154.3589 C.ar    1  UNL1        0.1786
     27 N         140.3786  143.3202  155.7926 N.ar    1  UNL1       -0.3092
     28 C         140.7102  144.7478  162.0153 C.2     1  UNL1        0.2402
     29 O         140.6618  145.1646  162.6930 O.2     1  UNL1       -0.2734
     30 H         140.6583  146.5293  159.2139 H       1  UNL1        0.1240
     31 C         142.8595  136.2080  157.2012 C.1     1  UNL1        0.1035
     32 N         143.3501  134.8446  157.5887 N.1     1  UNL1       -0.1907
@<TRIPOS>BOND
     1     1     2    1
     2     2     3    1
     3     3     4   ar
     4     4     5   ar
     5     5     6   ar
     6     6    31    1
     7    31    32    3
     8     6     7   ar
     9     7     8   ar
    10     7     9    1
    11     9    10    1
    12    10    11   ar
    13    11    12   ar
    14    12    13   ar
    15    13    14   ar
    16    14    15   ar
    17    14    16    1
    18    16    17    1
    19    17    18    1
    20    18    19    1
    21    20    19    1
    22    20    21    1
    23    21    22    1
    24    22    23    1
    25    23    24   ar
    26    24    25   ar
    27    25    26   ar
    28    26    27   ar
    29    20    28    1
    30    28    29    2
    31    27     2    1
    32     8     3   ar
    33    15    10   ar
    34    28    17   am
    35    27    23   ar
    36    21    30    1
@<TRIPOS>MOLECULE
*****
 32 36 0 0 0
SMALL
GASTEIGER

@<TRIPOS>ATOM
      1 C         142.9484  137.2306  157.2854 C.3     1  UNL1        0.0295
      2 C         142.5045  138.6180  157.6434 C.3     1  UNL1        0.1094
      3 C         142.6314  138.5895  159.1377 C.ar    1  UNL1        0.0013
      4 C         143.0624  137.5684  160.2055 C.ar    1  UNL1       -0.0016
      5 C         143.1577  137.6328  161.7010 C.ar    1  UNL1        0.0131
      6 C         142.7853  138.8940  162.4227 C.ar    1  UNL1        0.1028
      7 C         142.3176  140.0907  161.6488 C.ar    1  UNL1        0.1545
      8 C         142.5657  139.1066  160.5442 C.ar    1  UNL1        0.0357
      9 O         141.9247  141.3919  162.2832 O.3     1  UNL1       -0.4528
     10 C         141.3395  143.0869  162.1732 C.ar    1  UNL1        0.1451
     11 C         141.1796  143.8522  163.4533 C.ar    1  UNL1        0.0375
     12 C         140.6945  145.2713  163.4231 C.ar    1  UNL1        0.0029
     13 C         140.3694  145.9250  162.1128 C.ar    1  UNL1       -0.0024
     14 C         140.5294  145.1597  160.8327 C.ar    1  UNL1        0.0007
     15 C         141.0144  143.7407  160.8629 C.ar    1  UNL1        0.0349
     16 C         140.2293  145.7296  159.4780 C.3     1  UNL1        0.1203
     17 N         140.1025  145.7582  157.9837 N.am    1  UNL1       -0.2743
     18 C         139.7071  146.6598  156.8520 C.3     1  UNL1        0.0957
     19 C         139.8671  145.8945  155.5719 C.3     1  UNL1        0.0466
     20 C         140.4163  144.2569  155.4726 C.3     1  UNL1        0.1337
     21 N         140.8092  142.9557  154.8382 N.3     1  UNL1       -0.2863
     22 C         141.2870  141.5354  154.7706 C.3     1  UNL1        0.1151
     23 C         141.7769  140.2124  155.2799 C.ar    1  UNL1        0.0738
     24 C         141.8808  139.5930  153.9176 C.ar    1  UNL1        0.1147
     25 N         142.3726  138.1857  154.0846 N.ar    1  UNL1       -0.2226
     26 C         142.5726  137.9354  155.5500 C.ar    1  UNL1        0.1786
     27 N         142.2045  139.1879  156.2886 N.ar    1  UNL1       -0.3092
     28 C         140.1682  145.2410  156.5772 C.2     1  UNL1        0.2402
     29 O         139.9064  145.9565  156.3427 O.2     1  UNL1       -0.2734
     30 H         141.5101  143.3429  154.2063 H       1  UNL1        0.1240
     31 C         142.8806  138.9583  163.9183 C.1     1  UNL1        0.1035
     32 N         142.9760  139.0227  165.4139 N.1     1  UNL1       -0.1907
@<TRIPOS>BOND
     1     1     2    1
     2     2     3    1
     3     3     4   ar
     4     4     5   ar
     5     5     6   ar
     6     6    31    1
     7    31    32    3
     8     6     7   ar
     9     7     8   ar
    10     7     9    1
    11     9    10    1
    12    10    11   ar
    13    11    12   ar
    14    12    13   ar
    15    13    14   ar
    16    14    15   ar
    17    14    16    1
    18    16    17    1
    19    17    18    1
    20    18    19    1
    21    20    19    1
    22    20    21    1
    23    21    22    1
    24    22    23    1
    25    23    24   ar
    26    24    25   ar
    27    25    26   ar
    28    26    27   ar
    29    20    28    1
    30    28    29    2
    31    27     2    1
    32     8     3   ar
    33    15    10   ar
    34    28    17   am
    35    27    23   ar
    36    21    30    1
@<TRIPOS>MOLECULE
*****
 32 36 0 0 0
SMALL
GASTEIGER

@<TRIPOS>ATOM
      1 C         139.8825  139.0887  153.1112 C.3     1  UNL1        0.0295
      2 C         140.2818  139.5911  154.4670 C.3     1  UNL1        0.1094
      3 C         140.9855  138.3911  155.0282 C.ar    1  UNL1        0.0013
      4 C         141.3226  136.9668  154.5525 C.ar    1  UNL1       -0.0016
      5 C         142.0422  135.8185  155.1956 C.ar    1  UNL1        0.0131
      6 C         142.5930  135.9612  156.5835 C.ar    1  UNL1        0.1028
      7 C         142.4242  137.2522  157.3283 C.ar    1  UNL1        0.1545
      8 C         141.7377  137.5698  156.0329 C.ar    1  UNL1        0.0357
      9 O         142.9403  137.4868  158.7170 O.3     1  UNL1       -0.4528
     10 C         143.1687  138.5340  160.1588 C.ar    1  UNL1        0.1451
     11 C         143.9022  137.9534  161.3313 C.ar    1  UNL1        0.0375
     12 C         144.1227  138.7812  162.5626 C.ar    1  UNL1        0.0029
     13 C         143.6098  140.1896  162.6213 C.ar    1  UNL1       -0.0024
     14 C         142.8764  140.7701  161.4488 C.ar    1  UNL1        0.0007
     15 C         142.6558  139.9424  160.2175 C.ar    1  UNL1        0.0349
     16 C         142.3286  142.1662  161.4166 C.3     1  UNL1        0.1203
     17 N         141.6249  143.3662  160.8555 N.am    1  UNL1       -0.2743
     18 C         141.2378  144.7734  161.2014 C.3     1  UNL1        0.0957
     19 C         140.5043  145.3540  160.0288 C.3     1  UNL1        0.0466
     20 C         140.1862  144.5050  158.5553 C.3     1  UNL1        0.1337
     21 N         139.6701  144.2705  157.1665 N.3     1  UNL1       -0.2863
     22 C         139.4030  143.5195  155.8958 C.3     1  UNL1        0.1151
     23 C         139.4254  142.3666  154.9366 C.ar    1  UNL1        0.0738
     24 C         138.6772  143.0949  153.8596 C.ar    1  UNL1        0.1147
     25 N         138.5234  142.1655  152.6923 N.ar    1  UNL1       -0.2226
     26 C         139.1766  140.8628  153.0479 C.ar    1  UNL1        0.1786
     27 N         139.7340  140.9871  154.4348 N.ar    1  UNL1       -0.3092
     28 C         140.8726  144.1874  159.8507 C.2     1  UNL1        0.2402
     29 O         140.8799  144.7785  160.3855 O.2     1  UNL1       -0.2734
     30 H         140.1400  145.0655  156.7335 H       1  UNL1        0.1240
     31 C         143.3126  134.8128  157.2266 C.1     1  UNL1        0.1035
     32 N         144.0322  133.6645  157.8696 N.1     1  UNL1       -0.1907
@<TRIPOS>BOND
     1     1     2    1
     2     2     3    1
     3     3     4   ar
     4     4     5   ar
     5     5     6   ar
     6     6    31    1
     7    31    32    3
     8     6     7   ar
     9     7     8   ar
    10     7     9    1
    11     9    10    1
    12    10    11   ar
    13    11    12   ar
    14    12    13   ar
    15    13    14   ar
    16    14    15   ar
    17    14    16    1
    18    16    17    1
    19    17    18    1
    20    18    19    1
    21    20    19    1
    22    20    21    1
    23    21    22    1
    24    22    23    1
    25    23    24   ar
    26    24    25   ar
    27    25    26   ar
    28    26    27   ar
    29    20    28    1
    30    28    29    2
    31    27     2    1
    32     8     3   ar
    33    15    10   ar
    34    28    17   am
    35    27    23   ar
    36    21    30    1
@<TRIPOS>MOLECULE
*****
 32 36 0 0 0
SMALL
GASTEIGER

@<TRIPOS>ATOM
      1 C         136.7626  138.3217  152.9285 C.3     1  UNL1        0.0295
      2 C         137.5615  139.3422  153.6837 C.3     1  UNL1        0.1094
      3 C         138.6159  138.4810  154.3136 C.ar    1  UNL1        0.0013
      4 C         138.9770  136.9851  154.3299 C.ar    1  UNL1       -0.0016
      5 C         140.0686  136.2050  155.0005 C.ar    1  UNL1        0.0131
      6 C         141.0774  136.9110  155.8573 C.ar    1  UNL1        0.1028
      7 C         140.9945  138.3970  156.0433 C.ar    1  UNL1        0.1545
      8 C         139.8213  138.1491  155.1421 C.ar    1  UNL1        0.0357
      9 O         141.9568  139.1871  156.8799 O.3     1  UNL1       -0.4528
     10 C         142.5426  140.7401  157.5673 C.ar    1  UNL1        0.1451
     11 C         143.7553  140.6973  158.4491 C.ar    1  UNL1        0.0375
     12 C         144.2898  141.9628  159.0512 C.ar    1  UNL1        0.0029
     13 C         143.6117  143.2713  158.7714 C.ar    1  UNL1       -0.0024
     14 C         142.3991  143.3141  157.8896 C.ar    1  UNL1        0.0007
     15 C         141.8646  142.0485  157.2875 C.ar    1  UNL1        0.0349
     16 C         141.6565  144.5735  157.5543 C.3     1  UNL1        0.1203
     17 N         140.6022  145.4348  156.9245 N.am    1  UNL1       -0.2743
     18 C         140.1487  146.8613  156.8289 C.3     1  UNL1        0.0957
     19 C         138.9361  146.9041  155.9471 C.3     1  UNL1        0.0466
     20 C         138.2235  145.5187  155.1947 C.3     1  UNL1        0.1337
     21 N         137.2612  144.7287  154.3581 N.3     1  UNL1       -0.2863
     22 C         136.6564  143.5167  153.7135 C.3     1  UNL1        0.1151
     23 C         136.5011  142.0676  153.3589 C.ar    1  UNL1        0.0738
     24 C         135.2871  142.2848  152.5051 C.ar    1  UNL1        0.1147
     25 N         134.8547  140.9530  151.9669 N.ar    1  UNL1       -0.2226
     26 C         135.8014  139.9129  152.4882 C.ar    1  UNL1        0.1786
     27 N         136.8189  140.6017  153.3485 N.ar    1  UNL1       -0.3092
     28 C         139.3967  145.7666  156.0959 C.2     1  UNL1        0.2402
     29 O         139.5099  146.5274  156.3052 O.2     1  UNL1       -0.2734
     30 H         137.3896  145.2637  153.4992 H       1  UNL1        0.1240
     31 C         142.1690  136.1308  156.5279 C.1     1  UNL1        0.1035
     32 N         143.2606  135.3506  157.1985 N.1     1  UNL1       -0.1907
@<TRIPOS>BOND
     1     1     2    1
     2     2     3    1
     3     3     4   ar
     4     4     5   ar
     5     5     6   ar
     6     6    31    1
     7    31    32    3
     8     6     7   ar
     9     7     8   ar
    10     7     9    1
    11     9    10    1
    12    10    11   ar
    13    11    12   ar
    14    12    13   ar
    15    13    14   ar
    16    14    15   ar
    17    14    16    1
    18    16    17    1
    19    17    18    1
    20    18    19    1
    21    20    19    1
    22    20    21    1
    23    21    22    1
    24    22    23    1
    25    23    24   ar
    26    24    25   ar
    27    25    26   ar
    28    26    27   ar
    29    20    28    1
    30    28    29    2
    31    27     2    1
    32     8     3   ar
    33    15    10   ar
    34    28    17   am
    35    27    23   ar
    36    21    30    1
@<TRIPOS>MOLECULE
*****
 32 36 0 0 0
SMALL
GASTEIGER

@<TRIPOS>ATOM
      1 C         142.9758  137.2748  160.2095 C.3     1  UNL1        0.0295
      2 C         142.5154  138.6841  159.9813 C.3     1  UNL1        0.1094
      3 C         142.6462  138.7971  158.4913 C.ar    1  UNL1        0.0013
      4 C         143.0925  137.8857  157.3342 C.ar    1  UNL1       -0.0016
      5 C         143.1906  138.0910  155.8516 C.ar    1  UNL1        0.0131
      6 C         142.8042  139.4095  155.2498 C.ar    1  UNL1        0.1028
      7 C         142.3196  140.5227  156.1306 C.ar    1  UNL1        0.1545
      8 C         142.5774  139.4427  157.1391 C.ar    1  UNL1        0.0357
      9 O         141.9119  141.8727  155.6193 O.3     1  UNL1       -0.4528
     10 C         141.3053  143.5426  155.8852 C.ar    1  UNL1        0.1451
     11 C         141.1388  144.4223  154.6817 C.ar    1  UNL1        0.0375
     12 C         140.6359  145.8263  154.8428 C.ar    1  UNL1        0.0029
     13 C         140.2995  146.3505  156.2074 C.ar    1  UNL1       -0.0024
     14 C         140.4659  145.4708  157.4108 C.ar    1  UNL1        0.0007
     15 C         140.9688  144.0669  157.2497 C.ar    1  UNL1        0.0349
     16 C         140.1555  145.9077  158.8118 C.3     1  UNL1        0.1203
     17 N         140.0247  145.7948  160.3018 N.am    1  UNL1       -0.2743
     18 C         139.6153  146.5816  161.5114 C.3     1  UNL1        0.0957
     19 C         139.7818  145.7019  162.7149 C.3     1  UNL1        0.0466
     20 C         140.3513  144.0691  162.6626 C.3     1  UNL1        0.1337
     21 N         140.7590  142.7191  163.1739 N.3     1  UNL1       -0.2863
     22 C         141.2544  141.3047  163.1100 C.3     1  UNL1        0.1151
     23 C         141.7622  140.0413  162.4810 C.ar    1  UNL1        0.0738
     24 C         141.8705  139.2985  163.7797 C.ar    1  UNL1        0.1147
     25 N         142.3804  137.9191  163.4835 N.ar    1  UNL1       -0.2226
     26 C         142.5870  137.8095  162.0019 C.ar    1  UNL1        0.1786
     27 N         142.2050  139.1210  161.3823 N.ar    1  UNL1       -0.3092
     28 C         140.0935  145.1491  161.6540 C.2     1  UNL1        0.2402
     29 O         139.8222  145.8363  161.9534 O.2     1  UNL1       -0.2734
     30 H         139.8880  142.5138  163.6633 H       1  UNL1        0.1240
     31 C         142.9023  139.6147  153.7671 C.1     1  UNL1        0.1035
     32 N         143.0004  139.8199  152.2845 N.1     1  UNL1       -0.1907
@<TRIPOS>BOND
     1     1     2    1
     2     2     3    1
     3     3     4   ar
     4     4     5   ar
     5     5     6   ar
     6     6    31    1
     7    31    32    3
     8     6     7   ar
     9     7     8   ar
    10     7     9    1
    11     9    10    1
    12    10    11   ar
    13    11    12   ar
    14    12    13   ar
    15    13    14   ar
    16    14    15   ar
    17    14    16    1
    18    16    17    1
    19    17    18    1
    20    18    19    1
    21    20    19    1
    22    20    21    1
    23    21    22    1
    24    22    23    1
    25    23    24   ar
    26    24    25   ar
    27    25    26   ar
    28    26    27   ar
    29    20    28    1
    30    28    29    2
    31    27     2    1
    32     8     3   ar
    33    15    10   ar
    34    28    17   am
    35    27    23   ar
    36    21    30    1
