@<TRIPOS>MOLECULE
*****
 31 35 0 0 0
SMALL
GASTEIGER

@<TRIPOS>ATOM
      1 C         142.2556  141.5950  161.7402 C.ar    1  UNL1        0.1829
      2 N         141.5058  140.8845  162.8279 N.ar    1  UNL1       -0.2103
      3 C         142.5073  140.2016  163.7115 C.ar    1  UNL1        0.1414
      4 N         143.8761  140.4902  163.1700 N.ar    1  UNL1       -0.2361
      5 N         143.7205  141.3513  161.9517 N.ar    1  UNL1       -0.1488
      6 C         145.0872  139.9315  163.8562 C.3     1  UNL1        0.1289
      7 C         144.9296  139.0843  165.0839 C.3     1  UNL1        0.0272
      8 C         143.5608  138.7957  165.6254 C.3     1  UNL1        0.0140
      9 C         142.3497  139.3544  164.9392 C.3     1  UNL1        0.0803
     10 C         140.9809  139.0659  165.4807 C.ar    1  UNL1       -0.0192
     11 C         140.4327  139.8869  166.6100 C.ar    1  UNL1       -0.0019
     12 C         139.0639  139.5984  167.1515 C.ar    1  UNL1        0.0293
     13 C         138.2434  138.4889  166.5637 C.ar    1  UNL1        0.1398
     14 F         136.8746  138.2003  167.1052 F       1  UNL1       -0.2042
     15 C         138.7915  137.6679  165.4344 C.ar    1  UNL1        0.0251
     16 C         140.1603  137.9564  164.8929 C.ar    1  UNL1       -0.0232
     17 C         140.7085  137.1353  163.7635 C.3     1  UNL1        0.0308
     18 C         140.3355  144.5054  159.8447 C.ar    1  UNL1        0.1548
     19 C         140.9438  143.6936  160.9497 C.ar    1  UNL1        0.0415
     20 C         141.6474  142.4068  160.6352 C.ar    1  UNL1        0.0406
     21 C         141.7427  141.9317  159.2157 C.ar    1  UNL1        0.0048
     22 C         141.1344  142.7434  158.1106 C.ar    1  UNL1        0.0207
     23 C         140.4308  144.0302  158.4251 C.ar    1  UNL1        0.0994
     24 N         139.8226  144.8420  157.3201 N.ar    1  UNL1       -0.2839
     25 C         138.8292  144.3507  156.3092 C.ar    1  UNL1        0.1826
     26 N         138.4936  145.4926  155.3962 N.ar    1  UNL1       -0.2280
     27 C         139.2794  146.6896  155.8429 C.ar    1  UNL1        0.0786
     28 C         139.2493  148.0499  155.2115 C.3     1  UNL1        0.0538
     29 C         140.1008  146.2875  157.0319 C.ar    1  UNL1        0.0963
     30 C         139.6520  146.3357  161.5571 C.3     1  UNL1        0.2525
     31 O         139.6319  145.7923  160.1592 O.3     1  UNL1       -0.4700
@<TRIPOS>BOND
     1    30    31    1
     2    31    18    1
     3    18    19   ar
     4    19    20   ar
     5    20     1    1
     6     1     2   ar
     7     2     3   ar
     8     3     4   ar
     9     4     5   ar
    10     4     6    1
    11     6     7    1
    12     7     8    1
    13     8     9    1
    14     9    10    1
    15    10    11   ar
    16    11    12   ar
    17    12    13   ar
    18    13    14    1
    19    13    15   ar
    20    15    16   ar
    21    16    17    1
    22    20    21   ar
    23    21    22   ar
    24    22    23   ar
    25    23    24    1
    26    24    25   ar
    27    25    26   ar
    28    26    27   ar
    29    27    28    1
    30    27    29   ar
    31    23    18   ar
    32    29    24   ar
    33     5     1   ar
    34    16    10   ar
    35     9     3    1
@<TRIPOS>MOLECULE
*****
 31 35 0 0 0
SMALL
GASTEIGER

@<TRIPOS>ATOM
      1 C         140.7794  140.1770  164.1842 C.ar    1  UNL1        0.1829
      2 N         141.0757  140.7159  165.5523 N.ar    1  UNL1       -0.2103
      3 C         140.0403  140.1798  166.4960 C.ar    1  UNL1        0.1414
      4 N         139.1040  139.3096  165.7110 N.ar    1  UNL1       -0.2361
      5 N         139.5608  139.3079  164.2823 N.ar    1  UNL1       -0.1488
      6 C         137.9565  138.6312  166.3987 C.3     1  UNL1        0.1289
      7 C         137.7452  138.8230  167.8712 C.3     1  UNL1        0.0272
      8 C         138.6815  139.6933  168.6562 C.3     1  UNL1        0.0140
      9 C         139.8290  140.3717  167.9685 C.3     1  UNL1        0.0803
     10 C         140.7653  141.2419  168.7535 C.ar    1  UNL1       -0.0192
     11 C         140.3567  142.6354  169.1290 C.ar    1  UNL1       -0.0019
     12 C         141.2930  143.5057  169.9139 C.ar    1  UNL1        0.0293
     13 C         142.6378  142.9823  170.3233 C.ar    1  UNL1        0.1398
     14 F         143.5741  143.8525  171.1083 F       1  UNL1       -0.2042
     15 C         143.0463  141.5888  169.9478 C.ar    1  UNL1        0.0251
     16 C         142.1100  140.7185  169.1629 C.ar    1  UNL1       -0.0232
     17 C         142.5186  139.3249  168.7873 C.3     1  UNL1        0.0308
     18 C         143.7968  141.1173  161.7840 C.ar    1  UNL1        0.1548
     19 C         143.0123  140.8364  163.0312 C.ar    1  UNL1        0.0415
     20 C         141.5640  140.4579  162.9369 C.ar    1  UNL1        0.0406
     21 C         140.9001  140.3604  161.5954 C.ar    1  UNL1        0.0048
     22 C         141.6847  140.6413  160.3482 C.ar    1  UNL1        0.0207
     23 C         143.1330  141.0198  160.4425 C.ar    1  UNL1        0.0994
     24 N         143.9175  141.3007  159.1952 N.ar    1  UNL1       -0.2839
     25 C         144.5613  142.6065  158.8339 C.ar    1  UNL1        0.1826
     26 N         145.2377  142.4380  157.5057 N.ar    1  UNL1       -0.2280
     27 C         145.0120  141.0281  157.0461 C.ar    1  UNL1        0.0786
     28 C         145.5140  140.4266  155.7670 C.3     1  UNL1        0.0538
     29 C         144.1961  140.3252  158.0903 C.ar    1  UNL1        0.0963
     30 C         145.8540  141.8058  163.2137 C.3     1  UNL1        0.2525
     31 O         145.2453  141.4958  161.8784 O.3     1  UNL1       -0.4700
@<TRIPOS>BOND
     1    30    31    1
     2    31    18    1
     3    18    19   ar
     4    19    20   ar
     5    20     1    1
     6     1     2   ar
     7     2     3   ar
     8     3     4   ar
     9     4     5   ar
    10     4     6    1
    11     6     7    1
    12     7     8    1
    13     8     9    1
    14     9    10    1
    15    10    11   ar
    16    11    12   ar
    17    12    13   ar
    18    13    14    1
    19    13    15   ar
    20    15    16   ar
    21    16    17    1
    22    20    21   ar
    23    21    22   ar
    24    22    23   ar
    25    23    24    1
    26    24    25   ar
    27    25    26   ar
    28    26    27   ar
    29    27    28    1
    30    27    29   ar
    31    23    18   ar
    32    29    24   ar
    33     5     1   ar
    34    16    10   ar
    35     9     3    1
@<TRIPOS>MOLECULE
*****
 31 35 0 0 0
SMALL
GASTEIGER

@<TRIPOS>ATOM
      1 C         142.2611  141.6425  161.7218 C.ar    1  UNL1        0.1829
      2 N         141.5130  140.9311  162.8101 N.ar    1  UNL1       -0.2103
      3 C         142.5160  140.2493  163.6928 C.ar    1  UNL1        0.1414
      4 N         143.8840  140.5393  163.1501 N.ar    1  UNL1       -0.2361
      5 N         143.7264  141.4004  161.9320 N.ar    1  UNL1       -0.1488
      6 C         145.0963  139.9819  163.8352 C.3     1  UNL1        0.1289
      7 C         144.9407  139.1345  165.0630 C.3     1  UNL1        0.0272
      8 C         143.5727  138.8444  165.6057 C.3     1  UNL1        0.0140
      9 C         142.3604  139.4019  164.9206 C.3     1  UNL1        0.0803
     10 C         140.9924  139.1118  165.4633 C.ar    1  UNL1       -0.0192
     11 C         140.4436  139.9334  166.5919 C.ar    1  UNL1       -0.0019
     12 C         139.0756  139.6434  167.1346 C.ar    1  UNL1        0.0293
     13 C         138.2564  138.5318  166.5487 C.ar    1  UNL1        0.1398
     14 F         136.8885  138.2418  167.0914 F       1  UNL1       -0.2042
     15 C         138.8053  137.7103  165.4201 C.ar    1  UNL1        0.0251
     16 C         140.1732  138.0003  164.8774 C.ar    1  UNL1       -0.0232
     17 C         140.7220  137.1787  163.7487 C.3     1  UNL1        0.0308
     18 C         141.8987  143.7683  158.3902 C.ar    1  UNL1        0.1548
     19 C         142.5089  142.9571  159.4947 C.ar    1  UNL1        0.0415
     20 C         141.6510  142.4536  160.6173 C.ar    1  UNL1        0.0406
     21 C         140.1830  142.7612  160.6356 C.ar    1  UNL1        0.0048
     22 C         139.5729  143.5723  159.5311 C.ar    1  UNL1        0.0207
     23 C         140.4308  144.0759  158.4084 C.ar    1  UNL1        0.0994
     24 N         139.8207  144.8870  157.3039 N.ar    1  UNL1       -0.2839
     25 C         138.9939  144.3538  156.1716 C.ar    1  UNL1        0.1826
     26 N         138.5924  145.5110  155.3057 N.ar    1  UNL1       -0.2280
     27 C         139.1711  146.7594  155.9029 C.ar    1  UNL1        0.0786
     28 C         139.0177  148.1494  155.3604 C.3     1  UNL1        0.0538
     29 C         139.9302  146.3737  157.1378 C.ar    1  UNL1        0.0963
     30 C         142.8398  143.5012  155.9833 C.3     1  UNL1        0.2525
     31 O         142.7567  144.2718  157.2674 O.3     1  UNL1       -0.4700
@<TRIPOS>BOND
     1    30    31    1
     2    31    18    1
     3    18    19   ar
     4    19    20   ar
     5    20     1    1
     6     1     2   ar
     7     2     3   ar
     8     3     4   ar
     9     4     5   ar
    10     4     6    1
    11     6     7    1
    12     7     8    1
    13     8     9    1
    14     9    10    1
    15    10    11   ar
    16    11    12   ar
    17    12    13   ar
    18    13    14    1
    19    13    15   ar
    20    15    16   ar
    21    16    17    1
    22    20    21   ar
    23    21    22   ar
    24    22    23   ar
    25    23    24    1
    26    24    25   ar
    27    25    26   ar
    28    26    27   ar
    29    27    28    1
    30    27    29   ar
    31    23    18   ar
    32    29    24   ar
    33     5     1   ar
    34    16    10   ar
    35     9     3    1
@<TRIPOS>MOLECULE
*****
 31 35 0 0 0
SMALL
GASTEIGER

@<TRIPOS>ATOM
      1 C         143.0675  138.6028  159.4421 C.ar    1  UNL1        0.1829
      2 N         142.9453  137.3528  158.6220 N.ar    1  UNL1       -0.2103
      3 C         143.0160  137.7394  157.1744 C.ar    1  UNL1        0.1414
      4 N         143.1819  139.2284  157.0998 N.ar    1  UNL1       -0.2361
      5 N         143.2138  139.7619  158.5014 N.ar    1  UNL1       -0.1488
      6 C         143.2826  139.9059  155.7654 C.3     1  UNL1        0.1289
      7 C         143.2173  139.0945  154.5055 C.3     1  UNL1        0.0272
      8 C         143.0514  137.6056  154.5801 C.3     1  UNL1        0.0140
      9 C         142.9507  136.9280  155.9145 C.3     1  UNL1        0.0803
     10 C         142.7848  135.4391  155.9891 C.ar    1  UNL1       -0.0192
     11 C         143.8157  134.6037  156.6886 C.ar    1  UNL1       -0.0019
     12 C         143.6498  133.1148  156.7631 C.ar    1  UNL1        0.0293
     13 C         142.4530  132.4613  156.1382 C.ar    1  UNL1        0.1398
     14 F         142.2871  130.9723  156.2127 F       1  UNL1       -0.2042
     15 C         141.4222  133.2967  155.4386 C.ar    1  UNL1        0.0251
     16 C         141.5881  134.7856  155.3641 C.ar    1  UNL1       -0.0232
     17 C         140.5571  135.6210  154.6645 C.3     1  UNL1        0.0308
     18 C         144.1117  139.4940  163.1657 C.ar    1  UNL1        0.1548
     19 C         144.1322  139.4167  161.6679 C.ar    1  UNL1        0.0415
     20 C         143.0471  138.6801  160.9400 C.ar    1  UNL1        0.0406
     21 C         141.9415  138.0207  161.7100 C.ar    1  UNL1        0.0048
     22 C         141.9211  138.0980  163.2079 C.ar    1  UNL1        0.0207
     23 C         143.0062  138.8346  163.9357 C.ar    1  UNL1        0.0994
     24 N         142.9858  138.9119  165.4336 N.ar    1  UNL1       -0.2839
     25 C         143.8247  138.0940  166.3702 C.ar    1  UNL1        0.1826
     26 N         143.4802  138.4972  167.7733 N.ar    1  UNL1       -0.2280
     27 C         142.4284  139.5644  167.7039 C.ar    1  UNL1        0.0786
     28 C         141.7936  140.2542  168.8749 C.3     1  UNL1        0.0538
     29 C         142.1228  139.8207  166.2579 C.ar    1  UNL1        0.0963
     30 C         145.6031  141.6031  163.4447 C.3     1  UNL1        0.2525
     31 O         145.1969  140.2307  163.8936 O.3     1  UNL1       -0.4700
@<TRIPOS>BOND
     1    30    31    1
     2    31    18    1
     3    18    19   ar
     4    19    20   ar
     5    20     1    1
     6     1     2   ar
     7     2     3   ar
     8     3     4   ar
     9     4     5   ar
    10     4     6    1
    11     6     7    1
    12     7     8    1
    13     8     9    1
    14     9    10    1
    15    10    11   ar
    16    11    12   ar
    17    12    13   ar
    18    13    14    1
    19    13    15   ar
    20    15    16   ar
    21    16    17    1
    22    20    21   ar
    23    21    22   ar
    24    22    23   ar
    25    23    24    1
    26    24    25   ar
    27    25    26   ar
    28    26    27   ar
    29    27    28    1
    30    27    29   ar
    31    23    18   ar
    32    29    24   ar
    33     5     1   ar
    34    16    10   ar
    35     9     3    1
@<TRIPOS>MOLECULE
*****
 31 35 0 0 0
SMALL
GASTEIGER

@<TRIPOS>ATOM
      1 C         142.2776  139.9697  161.1558 C.ar    1  UNL1        0.1829
      2 N         141.4730  140.7684  162.1381 N.ar    1  UNL1       -0.2103
      3 C         140.8111  139.8099  163.0832 C.ar    1  UNL1        0.1414
      4 N         141.2065  138.4188  162.6851 N.ar    1  UNL1       -0.2361
      5 N         142.1129  138.5176  161.4939 N.ar    1  UNL1       -0.1488
      6 C         140.6903  137.2420  163.4586 C.3     1  UNL1        0.1289
      7 C         139.7786  137.4562  164.6303 C.3     1  UNL1        0.0272
      8 C         139.3831  138.8473  165.0284 C.3     1  UNL1        0.0140
      9 C         139.8994  140.0241  164.2548 C.3     1  UNL1        0.0803
     10 C         139.5039  141.4152  164.6529 C.ar    1  UNL1       -0.0192
     11 C         140.3704  142.2017  165.5915 C.ar    1  UNL1       -0.0019
     12 C         139.9749  143.5927  165.9896 C.ar    1  UNL1        0.0293
     13 C         138.7131  144.1974  165.4492 C.ar    1  UNL1        0.1398
     14 F         138.3176  145.5885  165.8473 F       1  UNL1       -0.2042
     15 C         137.8467  143.4110  164.5107 C.ar    1  UNL1        0.0251
     16 C         138.2421  142.0199  164.1126 C.ar    1  UNL1       -0.0232
     17 C         137.3756  141.2335  163.1740 C.3     1  UNL1        0.0308
     18 C         144.2025  140.2438  157.6962 C.ar    1  UNL1        0.1548
     19 C         143.3781  139.6881  158.8193 C.ar    1  UNL1        0.0415
     20 C         143.1021  140.5254  160.0327 C.ar    1  UNL1        0.0406
     21 C         143.6505  141.9186  160.1231 C.ar    1  UNL1        0.0048
     22 C         144.4750  142.4744  159.0000 C.ar    1  UNL1        0.0207
     23 C         144.7510  141.6370  157.7865 C.ar    1  UNL1        0.0994
     24 N         145.5755  142.1928  156.6634 N.ar    1  UNL1       -0.2839
     25 C         147.0411  142.5073  156.7174 C.ar    1  UNL1        0.1826
     26 N         147.4506  143.0405  155.3765 N.ar    1  UNL1       -0.2280
     27 C         146.2379  143.0556  154.4938 C.ar    1  UNL1        0.0786
     28 C         146.1921  143.5141  153.0663 C.3     1  UNL1        0.0538
     29 C         145.0791  142.5317  155.2891 C.ar    1  UNL1        0.0963
     30 C         143.3410  138.9005  155.6460 C.3     1  UNL1        0.2525
     31 O         144.4785  139.4064  156.4826 O.3     1  UNL1       -0.4700
@<TRIPOS>BOND
     1    30    31    1
     2    31    18    1
     3    18    19   ar
     4    19    20   ar
     5    20     1    1
     6     1     2   ar
     7     2     3   ar
     8     3     4   ar
     9     4     5   ar
    10     4     6    1
    11     6     7    1
    12     7     8    1
    13     8     9    1
    14     9    10    1
    15    10    11   ar
    16    11    12   ar
    17    12    13   ar
    18    13    14    1
    19    13    15   ar
    20    15    16   ar
    21    16    17    1
    22    20    21   ar
    23    21    22   ar
    24    22    23   ar
    25    23    24    1
    26    24    25   ar
    27    25    26   ar
    28    26    27   ar
    29    27    28    1
    30    27    29   ar
    31    23    18   ar
    32    29    24   ar
    33     5     1   ar
    34    16    10   ar
    35     9     3    1
@<TRIPOS>MOLECULE
*****
 31 35 0 0 0
SMALL
GASTEIGER

@<TRIPOS>ATOM
      1 C         140.7398  141.4313  161.7618 C.ar    1  UNL1        0.1829
      2 N         140.9102  141.2006  163.2341 N.ar    1  UNL1       -0.2103
      3 C         140.2967  142.3615  163.9594 C.ar    1  UNL1        0.1414
      4 N         139.7470  143.3096  162.9352 N.ar    1  UNL1       -0.2361
      5 N         140.0208  142.7347  161.5771 N.ar    1  UNL1       -0.1488
      6 C         139.0681  144.5740  163.3717 C.3     1  UNL1        0.1289
      7 C         138.9389  144.8902  164.8322 C.3     1  UNL1        0.0272
      8 C         139.4886  143.9420  165.8564 C.3     1  UNL1        0.0140
      9 C         140.1675  142.6777  165.4199 C.3     1  UNL1        0.0803
     10 C         140.7172  141.7295  166.4440 C.ar    1  UNL1       -0.0192
     11 C         139.7910  140.8275  167.2046 C.ar    1  UNL1       -0.0019
     12 C         140.3407  139.8793  168.2287 C.ar    1  UNL1        0.0293
     13 C         141.8166  139.8332  168.4923 C.ar    1  UNL1        0.1398
     14 F         142.3663  138.8851  169.5164 F       1  UNL1       -0.2042
     15 C         142.7428  140.7353  167.7318 C.ar    1  UNL1        0.0251
     16 C         142.1931  141.6834  166.7077 C.ar    1  UNL1       -0.0232
     17 C         143.1194  142.5855  165.9471 C.3     1  UNL1        0.0308
     18 C         143.0366  139.7878  158.9738 C.ar    1  UNL1        0.1548
     19 C         142.5701  140.7003  160.0690 C.ar    1  UNL1        0.0415
     20 C         141.2063  140.5187  160.6666 C.ar    1  UNL1        0.0406
     21 C         140.3090  139.4246  160.1688 C.ar    1  UNL1        0.0048
     22 C         140.7756  138.5121  159.0736 C.ar    1  UNL1        0.0207
     23 C         142.1394  138.6936  158.4760 C.ar    1  UNL1        0.0994
     24 N         142.6059  137.7811  157.3808 N.ar    1  UNL1       -0.2839
     25 C         142.8626  138.1732  155.9559 C.ar    1  UNL1        0.1826
     26 N         143.3130  136.9507  155.2125 N.ar    1  UNL1       -0.2280
     27 C         143.3347  135.8029  156.1781 C.ar    1  UNL1        0.0786
     28 C         143.7248  134.3900  155.8595 C.3     1  UNL1        0.0538
     29 C         142.8977  136.3162  157.5181 C.ar    1  UNL1        0.0963
     30 C         144.6615  141.1081  157.4354 C.3     1  UNL1        0.2525
     31 O         144.4005  139.9694  158.3762 O.3     1  UNL1       -0.4700
@<TRIPOS>BOND
     1    30    31    1
     2    31    18    1
     3    18    19   ar
     4    19    20   ar
     5    20     1    1
     6     1     2   ar
     7     2     3   ar
     8     3     4   ar
     9     4     5   ar
    10     4     6    1
    11     6     7    1
    12     7     8    1
    13     8     9    1
    14     9    10    1
    15    10    11   ar
    16    11    12   ar
    17    12    13   ar
    18    13    14    1
    19    13    15   ar
    20    15    16   ar
    21    16    17    1
    22    20    21   ar
    23    21    22   ar
    24    22    23   ar
    25    23    24    1
    26    24    25   ar
    27    25    26   ar
    28    26    27   ar
    29    27    28    1
    30    27    29   ar
    31    23    18   ar
    32    29    24   ar
    33     5     1   ar
    34    16    10   ar
    35     9     3    1
@<TRIPOS>MOLECULE
*****
 31 35 0 0 0
SMALL
GASTEIGER

@<TRIPOS>ATOM
      1 C         139.6157  141.6441  163.8692 C.ar    1  UNL1        0.1829
      2 N         140.2118  141.8463  165.2307 N.ar    1  UNL1       -0.2103
      3 C         139.5723  140.8647  166.1673 C.ar    1  UNL1        0.1414
      4 N         138.5808  140.0556  165.3847 N.ar    1  UNL1       -0.2361
      5 N         138.6077  140.5374  163.9644 N.ar    1  UNL1       -0.1488
      6 C         137.7817  138.9849  166.0665 C.3     1  UNL1        0.1289
      7 C         137.9740  138.7232  167.5308 C.3     1  UNL1        0.0272
      8 C         138.9655  139.5322  168.3135 C.3     1  UNL1        0.0140
      9 C         139.7646  140.6029  167.6317 C.3     1  UNL1        0.0803
     10 C         140.7561  141.4119  168.4144 C.ar    1  UNL1       -0.0192
     11 C         140.3173  142.6651  169.1122 C.ar    1  UNL1       -0.0019
     12 C         141.3088  143.4741  169.8949 C.ar    1  UNL1        0.0293
     13 C         142.7390  143.0300  169.9796 C.ar    1  UNL1        0.1398
     14 F         143.7304  143.8390  170.7622 F       1  UNL1       -0.2042
     15 C         143.1777  141.7768  169.2817 C.ar    1  UNL1        0.0251
     16 C         142.1863  140.9678  168.4991 C.ar    1  UNL1       -0.0232
     17 C         142.6251  139.7146  167.8012 C.3     1  UNL1        0.0308
     18 C         139.9770  142.6248  160.0407 C.ar    1  UNL1        0.1548
     19 C         139.6266  141.8554  161.2798 C.ar    1  UNL1        0.0415
     20 C         139.9660  142.4134  162.6301 C.ar    1  UNL1        0.0406
     21 C         140.6558  143.7407  162.7413 C.ar    1  UNL1        0.0048
     22 C         141.0062  144.5100  161.5022 C.ar    1  UNL1        0.0207
     23 C         140.6667  143.9521  160.1519 C.ar    1  UNL1        0.0994
     24 N         141.0171  144.7214  158.9128 N.ar    1  UNL1       -0.2839
     25 C         142.3895  144.8706  158.3261 C.ar    1  UNL1        0.1826
     26 N         142.2772  145.7180  157.0935 N.ar    1  UNL1       -0.2280
     27 C         140.8353  146.0926  156.9184 C.ar    1  UNL1        0.0786
     28 C         140.2712  146.9352  155.8131 C.3     1  UNL1        0.0538
     29 C         140.0566  145.4767  158.0428 C.ar    1  UNL1        0.0963
     30 C         138.2331  142.1597  158.1718 C.3     1  UNL1        0.2525
     31 O         139.6375  142.0667  158.6903 O.3     1  UNL1       -0.4700
@<TRIPOS>BOND
     1    30    31    1
     2    31    18    1
     3    18    19   ar
     4    19    20   ar
     5    20     1    1
     6     1     2   ar
     7     2     3   ar
     8     3     4   ar
     9     4     5   ar
    10     4     6    1
    11     6     7    1
    12     7     8    1
    13     8     9    1
    14     9    10    1
    15    10    11   ar
    16    11    12   ar
    17    12    13   ar
    18    13    14    1
    19    13    15   ar
    20    15    16   ar
    21    16    17    1
    22    20    21   ar
    23    21    22   ar
    24    22    23   ar
    25    23    24    1
    26    24    25   ar
    27    25    26   ar
    28    26    27   ar
    29    27    28    1
    30    27    29   ar
    31    23    18   ar
    32    29    24   ar
    33     5     1   ar
    34    16    10   ar
    35     9     3    1
@<TRIPOS>MOLECULE
*****
 31 35 0 0 0
SMALL
GASTEIGER

@<TRIPOS>ATOM
      1 C         142.1531  138.6658  159.5669 C.ar    1  UNL1        0.1829
      2 N         142.2381  137.4239  158.7299 N.ar    1  UNL1       -0.2103
      3 C         142.9261  137.7773  157.4447 C.ar    1  UNL1        0.1414
      4 N         143.2663  139.2376  157.4874 N.ar    1  UNL1       -0.2361
      5 N         142.7886  139.7867  158.7990 N.ar    1  UNL1       -0.1488
      6 C         143.9672  139.8786  156.3264 C.3     1  UNL1        0.1289
      7 C         144.3279  139.0594  155.1228 C.3     1  UNL1        0.0272
      8 C         143.9877  137.5991  155.0801 C.3     1  UNL1        0.0140
      9 C         143.2868  136.9581  156.2411 C.3     1  UNL1        0.0803
     10 C         142.9466  135.4978  156.1984 C.ar    1  UNL1       -0.0192
     11 C         143.8115  134.5049  156.9168 C.ar    1  UNL1       -0.0019
     12 C         143.4713  133.0446  156.8741 C.ar    1  UNL1        0.0293
     13 C         142.2662  132.5772  156.1130 C.ar    1  UNL1        0.1398
     14 F         141.9260  131.1169  156.0703 F       1  UNL1       -0.2042
     15 C         141.4013  133.5701  155.3946 C.ar    1  UNL1        0.0251
     16 C         141.7415  135.0304  155.4373 C.ar    1  UNL1       -0.0232
     17 C         140.8766  136.0233  154.7188 C.3     1  UNL1        0.0308
     18 C         139.9923  140.0001  162.6166 C.ar    1  UNL1        0.1548
     19 C         140.6052  139.8972  161.2513 C.ar    1  UNL1        0.0415
     20 C         141.5402  138.7686  160.9321 C.ar    1  UNL1        0.0406
     21 C         141.8624  137.7429  161.9781 C.ar    1  UNL1        0.0048
     22 C         141.2495  137.8458  163.3433 C.ar    1  UNL1        0.0207
     23 C         140.3145  138.9744  163.6625 C.ar    1  UNL1        0.0994
     24 N         139.7016  139.0772  165.0277 N.ar    1  UNL1       -0.2839
     25 C         138.4282  138.4221  165.4742 C.ar    1  UNL1        0.1826
     26 N         138.1941  138.7933  166.9086 N.ar    1  UNL1       -0.2280
     27 C         139.3228  139.6778  167.3486 C.ar    1  UNL1        0.0786
     28 C         139.4904  140.2810  168.7117 C.3     1  UNL1        0.0538
     29 C         140.2544  139.8533  166.1862 C.ar    1  UNL1        0.0963
     30 C         137.5869  140.9802  162.6784 C.3     1  UNL1        0.2525
     31 O         139.0572  141.1287  162.9358 O.3     1  UNL1       -0.4700
@<TRIPOS>BOND
     1    30    31    1
     2    31    18    1
     3    18    19   ar
     4    19    20   ar
     5    20     1    1
     6     1     2   ar
     7     2     3   ar
     8     3     4   ar
     9     4     5   ar
    10     4     6    1
    11     6     7    1
    12     7     8    1
    13     8     9    1
    14     9    10    1
    15    10    11   ar
    16    11    12   ar
    17    12    13   ar
    18    13    14    1
    19    13    15   ar
    20    15    16   ar
    21    16    17    1
    22    20    21   ar
    23    21    22   ar
    24    22    23   ar
    25    23    24    1
    26    24    25   ar
    27    25    26   ar
    28    26    27   ar
    29    27    28    1
    30    27    29   ar
    31    23    18   ar
    32    29    24   ar
    33     5     1   ar
    34    16    10   ar
    35     9     3    1
@<TRIPOS>MOLECULE
*****
 31 35 0 0 0
SMALL
GASTEIGER

@<TRIPOS>ATOM
      1 C         140.6723  140.3578  160.8685 C.ar    1  UNL1        0.1829
      2 N         140.1843  139.8754  162.2023 N.ar    1  UNL1       -0.2103
      3 C         141.3811  139.6262  163.0714 C.ar    1  UNL1        0.1414
      4 N         142.6089  139.9546  162.2747 N.ar    1  UNL1       -0.2361
      5 N         142.1708  140.4068  160.9133 N.ar    1  UNL1       -0.1488
      6 C         143.9672  139.7995  162.8919 C.3     1  UNL1        0.1289
      7 C         144.0977  139.3159  164.3058 C.3     1  UNL1        0.0272
      8 C         142.8699  138.9875  165.1025 C.3     1  UNL1        0.0140
      9 C         141.5116  139.1427  164.4853 C.3     1  UNL1        0.0803
     10 C         140.2839  138.8143  165.2820 C.ar    1  UNL1       -0.0192
     11 C         139.5072  137.5664  164.9829 C.ar    1  UNL1       -0.0019
     12 C         138.2795  137.2380  165.7796 C.ar    1  UNL1        0.0293
     13 C         137.8283  138.1575  166.8754 C.ar    1  UNL1        0.1398
     14 F         136.6005  137.8291  167.6721 F       1  UNL1       -0.2042
     15 C         138.6049  139.4054  167.1745 C.ar    1  UNL1        0.0251
     16 C         139.8327  139.7338  166.3778 C.ar    1  UNL1       -0.0232
     17 C         140.6094  140.9818  166.6770 C.3     1  UNL1        0.0308
     18 C         138.7222  140.1041  157.4213 C.ar    1  UNL1        0.1548
     19 C         139.5818  139.7353  158.5940 C.ar    1  UNL1        0.0415
     20 C         139.8127  140.7266  159.6958 C.ar    1  UNL1        0.0406
     21 C         139.1840  142.0866  159.6249 C.ar    1  UNL1        0.0048
     22 C         138.3244  142.4553  158.4523 C.ar    1  UNL1        0.0207
     23 C         138.0936  141.4641  157.3505 C.ar    1  UNL1        0.0994
     24 N         137.2340  141.8328  156.1778 N.ar    1  UNL1       -0.2839
     25 C         135.8508  141.3216  155.9031 C.ar    1  UNL1        0.1826
     26 N         135.3686  141.9504  154.6295 N.ar    1  UNL1       -0.2280
     27 C         136.4538  142.8501  154.1169 C.ar    1  UNL1        0.0786
     28 C         136.3963  143.6773  152.8670 C.3     1  UNL1        0.0538
     29 C         137.6067  142.7775  155.0738 C.ar    1  UNL1        0.0963
     30 C         139.4058  139.0860  155.1308 C.3     1  UNL1        0.2525
     31 O         138.4914  139.1127  156.3195 O.3     1  UNL1       -0.4700
@<TRIPOS>BOND
     1    30    31    1
     2    31    18    1
     3    18    19   ar
     4    19    20   ar
     5    20     1    1
     6     1     2   ar
     7     2     3   ar
     8     3     4   ar
     9     4     5   ar
    10     4     6    1
    11     6     7    1
    12     7     8    1
    13     8     9    1
    14     9    10    1
    15    10    11   ar
    16    11    12   ar
    17    12    13   ar
    18    13    14    1
    19    13    15   ar
    20    15    16   ar
    21    16    17    1
    22    20    21   ar
    23    21    22   ar
    24    22    23   ar
    25    23    24    1
    26    24    25   ar
    27    25    26   ar
    28    26    27   ar
    29    27    28    1
    30    27    29   ar
    31    23    18   ar
    32    29    24   ar
    33     5     1   ar
    34    16    10   ar
    35     9     3    1
