@<TRIPOS>MOLECULE
*****
 33 36 0 0 0
SMALL
GASTEIGER

@<TRIPOS>ATOM
      1 C         141.7857  143.1166  163.4754 C.3     1  UNL1        0.1783
      2 C         141.6335  143.7210  162.1110 C.ar    1  UNL1        0.0426
      3 C         142.4908  143.6537  160.8821 C.ar    1  UNL1        0.1318
      4 O         143.7655  142.8633  160.8992 O.3     1  UNL1       -0.5058
      5 C         142.0735  144.3769  159.6360 C.ar    1  UNL1        0.0364
      6 C         140.7988  145.1674  159.6189 C.ar    1  UNL1        0.0032
      7 C         139.9414  145.2347  160.8478 C.ar    1  UNL1        0.0045
      8 C         140.3588  144.5115  162.0939 C.ar    1  UNL1        0.0546
      9 C         139.7233  144.3955  163.4477 C.2     1  UNL1        0.2497
     10 O         138.4325  145.0303  163.8730 O.2     1  UNL1       -0.2699
     11 N         140.6052  143.5334  164.3015 N.am    1  UNL1       -0.2619
     12 H         144.0262  142.4115  161.6776 H       1  UNL1        0.2922
     13 N         142.8615  140.7642  163.7191 N.am    1  UNL1       -0.3059
     14 C         142.9196  142.2477  163.9332 C.2     1  UNL1        0.2449
     15 O         144.1114  142.8623  164.6052 O.2     1  UNL1       -0.2729
     16 H         142.0792  140.3607  163.2780 H       1  UNL1        0.1494
     17 C         143.2659  139.6188  165.4582 C.3     1  UNL1        0.0196
     18 C         143.9953  139.8953  164.1769 C.3     1  UNL1        0.0569
     19 C         144.7246  140.1719  162.8956 C.3     1  UNL1        0.0196
     20 C         145.1290  139.0266  164.6347 C.3     1  UNL1        0.0196
     21 C         140.3511  143.1547  165.7305 C.3     1  UNL1        0.1212
     22 C         139.7450  141.8220  166.0568 C.ar    1  UNL1       -0.0023
     23 C         138.8329  141.1517  165.0725 C.ar    1  UNL1       -0.0026
     24 C         138.2268  139.8190  165.3988 C.ar    1  UNL1       -0.0003
     25 C         138.5327  139.1566  166.7094 C.ar    1  UNL1       -0.0000
     26 C         139.4447  139.8269  167.6937 C.ar    1  UNL1       -0.0003
     27 C         140.0509  141.1597  167.3674 C.ar    1  UNL1       -0.0024
     28 C         140.9629  141.8300  168.3517 C.ar    1  UNL1       -0.0003
     29 C         140.4332  142.9058  169.2529 C.ar    1  UNL1       -0.0000
     30 C         141.3452  143.5761  170.2371 C.ar    1  UNL1       -0.0000
     31 C         142.7871  143.1706  170.3203 C.ar    1  UNL1       -0.0000
     32 C         143.3168  142.0948  169.4192 C.ar    1  UNL1       -0.0000
     33 C         142.4047  141.4245  168.4348 C.ar    1  UNL1       -0.0000
@<TRIPOS>BOND
     1    17    18    1
     2    18    19    1
     3    18    20    1
     4    18    13    1
     5    13    14   am
     6    14    15    2
     7    14     1    1
     8     1     2    1
     9     2     3   ar
    10     3     4    1
    11     3     5   ar
    12     5     6   ar
    13     6     7   ar
    14     7     8   ar
    15     8     9    1
    16     9    10    2
    17     9    11   am
    18    11    21    1
    19    21    22    1
    20    22    23   ar
    21    23    24   ar
    22    24    25   ar
    23    25    26   ar
    24    26    27   ar
    25    27    28    1
    26    28    29   ar
    27    29    30   ar
    28    30    31   ar
    29    31    32   ar
    30    32    33   ar
    31    11     1    1
    32    27    22   ar
    33    33    28   ar
    34     8     2   ar
    35    13    16    1
    36     4    12    1
@<TRIPOS>MOLECULE
*****
 33 36 0 0 0
SMALL
GASTEIGER

@<TRIPOS>ATOM
      1 C         140.1334  141.5099  163.9320 C.3     1  UNL1        0.1783
      2 C         139.7000  140.1105  163.6098 C.ar    1  UNL1        0.0426
      3 C         139.5476  139.3816  162.3077 C.ar    1  UNL1        0.1318
      4 O         139.8576  140.0797  161.0167 O.3     1  UNL1       -0.5058
      5 C         139.0853  137.9547  162.2966 C.ar    1  UNL1        0.0364
      6 C         138.7753  137.2567  163.5875 C.ar    1  UNL1        0.0032
      7 C         138.9276  137.9855  164.8896 C.ar    1  UNL1        0.0045
      8 C         139.3900  139.4124  164.9008 C.ar    1  UNL1        0.0546
      9 C         139.6318  140.3805  166.0208 C.2     1  UNL1        0.2497
     10 O         139.4467  140.1012  167.4829 O.2     1  UNL1       -0.2699
     11 N         140.0912  141.6768  165.4220 N.am    1  UNL1       -0.2619
     12 H         140.1465  140.9710  161.0236 H       1  UNL1        0.2922
     13 N         139.5086  143.4901  162.3702 N.am    1  UNL1       -0.3059
     14 C         140.5379  142.5584  162.9384 C.2     1  UNL1        0.2449
     15 O         141.9715  142.6752  162.5131 O.2     1  UNL1       -0.2729
     16 H         138.5677  143.4134  162.6494 H       1  UNL1        0.1494
     17 C         140.1249  145.5160  162.4946 C.3     1  UNL1        0.0196
     18 C         139.9132  144.5385  161.3767 C.3     1  UNL1        0.0569
     19 C         139.7013  143.5610  160.2589 C.3     1  UNL1        0.0196
     20 C         140.3176  145.5870  160.3833 C.3     1  UNL1        0.0196
     21 C         140.4462  142.9214  166.1803 C.3     1  UNL1        0.1212
     22 C         141.1135  142.8190  167.5197 C.ar    1  UNL1       -0.0023
     23 C         140.3617  143.1929  168.7627 C.ar    1  UNL1       -0.0026
     24 C         141.0290  143.0905  170.1022 C.ar    1  UNL1       -0.0003
     25 C         142.4481  142.6143  170.1987 C.ar    1  UNL1       -0.0000
     26 C         143.1999  142.2404  168.9558 C.ar    1  UNL1       -0.0003
     27 C         142.5326  142.3428  167.6162 C.ar    1  UNL1       -0.0024
     28 C         143.2844  141.9689  166.3733 C.ar    1  UNL1       -0.0003
     29 C         144.0830  143.0052  165.6395 C.ar    1  UNL1       -0.0000
     30 C         144.8348  142.6313  164.3966 C.ar    1  UNL1       -0.0000
     31 C         144.7881  141.2211  163.8873 C.ar    1  UNL1       -0.0000
     32 C         143.9894  140.1849  164.6211 C.ar    1  UNL1       -0.0000
     33 C         143.2376  140.5588  165.8641 C.ar    1  UNL1       -0.0000
@<TRIPOS>BOND
     1    17    18    1
     2    18    19    1
     3    18    20    1
     4    18    13    1
     5    13    14   am
     6    14    15    2
     7    14     1    1
     8     1     2    1
     9     2     3   ar
    10     3     4    1
    11     3     5   ar
    12     5     6   ar
    13     6     7   ar
    14     7     8   ar
    15     8     9    1
    16     9    10    2
    17     9    11   am
    18    11    21    1
    19    21    22    1
    20    22    23   ar
    21    23    24   ar
    22    24    25   ar
    23    25    26   ar
    24    26    27   ar
    25    27    28    1
    26    28    29   ar
    27    29    30   ar
    28    30    31   ar
    29    31    32   ar
    30    32    33   ar
    31    11     1    1
    32    27    22   ar
    33    33    28   ar
    34     8     2   ar
    35    13    16    1
    36     4    12    1
@<TRIPOS>MOLECULE
*****
 33 36 0 0 0
SMALL
GASTEIGER

@<TRIPOS>ATOM
      1 C         142.3882  141.8262  163.0996 C.3     1  UNL1        0.1783
      2 C         142.8879  141.9625  161.6918 C.ar    1  UNL1        0.0426
      3 C         142.8142  143.0901  160.7054 C.ar    1  UNL1        0.1318
      4 O         142.1375  144.3743  161.0835 O.3     1  UNL1       -0.5058
      5 C         143.4171  142.9335  159.3409 C.ar    1  UNL1        0.0364
      6 C         144.0938  141.6493  158.9629 C.ar    1  UNL1        0.0032
      7 C         144.1675  140.5217  159.9493 C.ar    1  UNL1        0.0045
      8 C         143.5646  140.6783  161.3137 C.ar    1  UNL1        0.0546
      9 C         143.4830  139.7483  162.4878 C.2     1  UNL1        0.2497
     10 O         144.0322  138.3537  162.5476 O.2     1  UNL1       -0.2699
     11 N         142.7560  140.4577  163.5915 N.am    1  UNL1       -0.2619
     12 H         141.7609  144.4721  161.9359 H       1  UNL1        0.2922
     13 N         140.1518  142.9270  163.8323 N.am    1  UNL1       -0.3059
     14 C         141.6502  142.8743  163.8786 C.2     1  UNL1        0.2449
     15 O         142.4105  143.8697  164.7038 O.2     1  UNL1       -0.2729
     16 H         139.6527  142.2737  163.2907 H       1  UNL1        0.1494
     17 C         139.5331  144.9202  163.4526 C.3     1  UNL1        0.0196
     18 C         139.4138  143.9751  164.6113 C.3     1  UNL1        0.0569
     19 C         139.2946  143.0300  165.7700 C.3     1  UNL1        0.0196
     20 C         138.6759  145.0232  165.3902 C.3     1  UNL1        0.0196
     21 C         142.4504  139.8971  164.9489 C.3     1  UNL1        0.1212
     22 C         141.0308  139.6125  165.3406 C.ar    1  UNL1       -0.0023
     23 C         140.0711  139.0565  164.3306 C.ar    1  UNL1       -0.0026
     24 C         138.6514  138.7720  164.7223 C.ar    1  UNL1       -0.0003
     25 C         138.1913  139.0434  166.1239 C.ar    1  UNL1       -0.0000
     26 C         139.1509  139.5994  167.1339 C.ar    1  UNL1       -0.0003
     27 C         140.5707  139.8840  166.7422 C.ar    1  UNL1       -0.0024
     28 C         141.5302  140.4400  167.7522 C.ar    1  UNL1       -0.0003
     29 C         141.9633  139.6000  168.9170 C.ar    1  UNL1       -0.0000
     30 C         142.9229  140.1560  169.9269 C.ar    1  UNL1       -0.0000
     31 C         143.4495  141.5520  169.7721 C.ar    1  UNL1       -0.0000
     32 C         143.0164  142.3920  168.6072 C.ar    1  UNL1       -0.0000
     33 C         142.0567  141.8359  167.5973 C.ar    1  UNL1       -0.0000
@<TRIPOS>BOND
     1    17    18    1
     2    18    19    1
     3    18    20    1
     4    18    13    1
     5    13    14   am
     6    14    15    2
     7    14     1    1
     8     1     2    1
     9     2     3   ar
    10     3     4    1
    11     3     5   ar
    12     5     6   ar
    13     6     7   ar
    14     7     8   ar
    15     8     9    1
    16     9    10    2
    17     9    11   am
    18    11    21    1
    19    21    22    1
    20    22    23   ar
    21    23    24   ar
    22    24    25   ar
    23    25    26   ar
    24    26    27   ar
    25    27    28    1
    26    28    29   ar
    27    29    30   ar
    28    30    31   ar
    29    31    32   ar
    30    32    33   ar
    31    11     1    1
    32    27    22   ar
    33    33    28   ar
    34     8     2   ar
    35    13    16    1
    36     4    12    1
@<TRIPOS>MOLECULE
*****
 33 36 0 0 0
SMALL
GASTEIGER

@<TRIPOS>ATOM
      1 C         140.8497  142.1271  165.3888 C.3     1  UNL1        0.1783
      2 C         141.8087  143.1221  164.8053 C.ar    1  UNL1        0.0426
      3 C         143.2508  143.4154  165.0954 C.ar    1  UNL1        0.1318
      4 O         143.9789  142.6313  166.1467 O.3     1  UNL1       -0.5058
      5 C         143.9649  144.4927  164.3343 C.ar    1  UNL1        0.0364
      6 C         143.2368  145.2768  163.2830 C.ar    1  UNL1        0.0032
      7 C         141.7947  144.9835  162.9929 C.ar    1  UNL1        0.0045
      8 C         141.0807  143.9061  163.7540 C.ar    1  UNL1        0.0546
      9 C         139.6717  143.3957  163.6878 C.2     1  UNL1        0.2497
     10 O         138.5946  143.8969  162.7720 O.2     1  UNL1       -0.2699
     11 N         139.5290  142.2963  164.6981 N.am    1  UNL1       -0.2619
     12 H         143.5328  141.9583  166.6221 H       1  UNL1        0.2922
     13 N         141.0472  141.5426  167.9126 N.am    1  UNL1       -0.3059
     14 C         141.1575  141.1369  166.4726 C.2     1  UNL1        0.2449
     15 O         141.5755  139.7411  166.1167 O.2     1  UNL1       -0.2729
     16 H         140.7728  142.4587  168.1463 H       1  UNL1        0.1494
     17 C         142.8047  140.9321  168.9316 C.3     1  UNL1        0.0196
     18 C         141.3550  140.5523  168.9964 C.3     1  UNL1        0.0569
     19 C         139.9053  140.1727  169.0612 C.3     1  UNL1        0.0196
     20 C         141.6628  139.5622  170.0802 C.3     1  UNL1        0.0196
     21 C         138.2841  141.5049  164.9701 C.3     1  UNL1        0.1212
     22 C         138.3512  140.0092  165.0621 C.ar    1  UNL1       -0.0023
     23 C         137.9520  139.3172  166.3317 C.ar    1  UNL1       -0.0026
     24 C         138.0192  137.8216  166.4237 C.ar    1  UNL1       -0.0003
     25 C         138.4856  137.0179  165.2461 C.ar    1  UNL1       -0.0000
     26 C         138.8848  137.7099  163.9766 C.ar    1  UNL1       -0.0003
     27 C         138.8176  139.2056  163.8845 C.ar    1  UNL1       -0.0024
     28 C         139.2168  139.8975  162.6150 C.ar    1  UNL1       -0.0003
     29 C         140.6686  140.0821  162.2860 C.ar    1  UNL1       -0.0000
     30 C         141.0678  140.7741  161.0164 C.ar    1  UNL1       -0.0000
     31 C         140.0152  141.2815  160.0758 C.ar    1  UNL1       -0.0000
     32 C         138.5634  141.0969  160.4049 C.ar    1  UNL1       -0.0000
     33 C         138.1643  140.4049  161.6745 C.ar    1  UNL1       -0.0000
@<TRIPOS>BOND
     1    17    18    1
     2    18    19    1
     3    18    20    1
     4    18    13    1
     5    13    14   am
     6    14    15    2
     7    14     1    1
     8     1     2    1
     9     2     3   ar
    10     3     4    1
    11     3     5   ar
    12     5     6   ar
    13     6     7   ar
    14     7     8   ar
    15     8     9    1
    16     9    10    2
    17     9    11   am
    18    11    21    1
    19    21    22    1
    20    22    23   ar
    21    23    24   ar
    22    24    25   ar
    23    25    26   ar
    24    26    27   ar
    25    27    28    1
    26    28    29   ar
    27    29    30   ar
    28    30    31   ar
    29    31    32   ar
    30    32    33   ar
    31    11     1    1
    32    27    22   ar
    33    33    28   ar
    34     8     2   ar
    35    13    16    1
    36     4    12    1
@<TRIPOS>MOLECULE
*****
 33 36 0 0 0
SMALL
GASTEIGER

@<TRIPOS>ATOM
      1 C         141.0969  141.7751  162.4438 C.3     1  UNL1        0.1783
      2 C         140.8040  143.1891  162.0379 C.ar    1  UNL1        0.0426
      3 C         141.2044  143.9917  160.8356 C.ar    1  UNL1        0.1318
      4 O         142.0581  143.3709  159.7698 O.3     1  UNL1       -0.5058
      5 C         140.7510  145.4149  160.6990 C.ar    1  UNL1        0.0364
      6 C         139.8973  146.0357  161.7647 C.ar    1  UNL1        0.0032
      7 C         139.4969  145.2332  162.9670 C.ar    1  UNL1        0.0045
      8 C         139.9503  143.8099  163.1036 C.ar    1  UNL1        0.0546
      9 C         139.7156  142.7795  164.1681 C.2     1  UNL1        0.2497
     10 O         138.9130  142.9727  165.4206 O.2     1  UNL1       -0.2699
     11 N         140.4242  141.5219  163.7603 N.am    1  UNL1       -0.2619
     12 H         142.3414  142.4818  159.8552 H       1  UNL1        0.2922
     13 N         141.3580  139.4336  161.3486 N.am    1  UNL1       -0.3059
     14 C         141.9184  140.7876  161.6691 C.2     1  UNL1        0.2449
     15 O         143.3001  141.1541  161.2148 O.2     1  UNL1       -0.2729
     16 H         140.4510  139.1930  161.6467 H       1  UNL1        0.1494
     17 C         141.5691  138.9410  159.2961 C.3     1  UNL1        0.0196
     18 C         142.1794  138.4461  160.5739 C.3     1  UNL1        0.0569
     19 C         142.7896  137.9513  161.8516 C.3     1  UNL1        0.0196
     20 C         143.0008  137.4587  159.7992 C.3     1  UNL1        0.0196
     21 C         140.4548  140.2368  164.5334 C.3     1  UNL1        0.1212
     22 C         140.6550  140.2603  166.0197 C.ar    1  UNL1       -0.0023
     23 C         139.4962  140.0024  166.9368 C.ar    1  UNL1       -0.0026
     24 C         139.6964  140.0259  168.4231 C.ar    1  UNL1       -0.0003
     25 C         141.0553  140.3071  168.9926 C.ar    1  UNL1       -0.0000
     26 C         142.2141  140.5650  168.0756 C.ar    1  UNL1       -0.0003
     27 C         142.0139  140.5415  166.5892 C.ar    1  UNL1       -0.0024
     28 C         143.1726  140.7994  165.6722 C.ar    1  UNL1       -0.0003
     29 C         143.9123  139.6488  165.0565 C.ar    1  UNL1       -0.0000
     30 C         145.0710  139.9066  164.1395 C.ar    1  UNL1       -0.0000
     31 C         145.4902  141.3151  163.8383 C.ar    1  UNL1       -0.0000
     32 C         144.7505  142.4657  164.4541 C.ar    1  UNL1       -0.0000
     33 C         143.5917  142.2078  165.3711 C.ar    1  UNL1       -0.0000
@<TRIPOS>BOND
     1    17    18    1
     2    18    19    1
     3    18    20    1
     4    18    13    1
     5    13    14   am
     6    14    15    2
     7    14     1    1
     8     1     2    1
     9     2     3   ar
    10     3     4    1
    11     3     5   ar
    12     5     6   ar
    13     6     7   ar
    14     7     8   ar
    15     8     9    1
    16     9    10    2
    17     9    11   am
    18    11    21    1
    19    21    22    1
    20    22    23   ar
    21    23    24   ar
    22    24    25   ar
    23    25    26   ar
    24    26    27   ar
    25    27    28    1
    26    28    29   ar
    27    29    30   ar
    28    30    31   ar
    29    31    32   ar
    30    32    33   ar
    31    11     1    1
    32    27    22   ar
    33    33    28   ar
    34     8     2   ar
    35    13    16    1
    36     4    12    1
@<TRIPOS>MOLECULE
*****
 33 36 0 0 0
SMALL
GASTEIGER

@<TRIPOS>ATOM
      1 C         140.3576  142.2827  163.3107 C.3     1  UNL1        0.1783
      2 C         139.8810  142.4778  161.9018 C.ar    1  UNL1        0.0426
      3 C         140.2255  143.4985  160.8580 C.ar    1  UNL1        0.1318
      4 O         141.2217  144.5774  161.1640 O.3     1  UNL1       -0.5058
      5 C         139.5738  143.4403  159.5083 C.ar    1  UNL1        0.0364
      6 C         138.5776  142.3613  159.2023 C.ar    1  UNL1        0.0032
      7 C         138.2332  141.3407  160.2461 C.ar    1  UNL1        0.0045
      8 C         138.8849  141.3989  161.5959 C.ar    1  UNL1        0.0546
      9 C         138.7458  140.5371  162.8156 C.2     1  UNL1        0.2497
     10 O         137.8532  139.3392  162.9517 O.2     1  UNL1       -0.2699
     11 N         139.6560  141.0833  163.8755 N.am    1  UNL1       -0.2619
     12 H         141.6288  144.6138  162.0071 H       1  UNL1        0.2922
     13 N         142.8097  142.7523  164.0297 N.am    1  UNL1       -0.3059
     14 C         141.3598  143.1372  164.0287 C.2     1  UNL1        0.2449
     15 O         140.9123  144.3763  164.7456 O.2     1  UNL1       -0.2729
     16 H         143.1034  141.9389  163.5592 H       1  UNL1        0.1494
     17 C         143.7633  142.6759  165.9231 C.3     1  UNL1        0.0196
     18 C         143.8119  143.6067  164.7477 C.3     1  UNL1        0.0569
     19 C         143.8605  144.5374  163.5724 C.3     1  UNL1        0.0196
     20 C         144.8141  144.4611  165.4657 C.3     1  UNL1        0.0196
     21 C         139.8333  140.5276  165.2574 C.3     1  UNL1        0.1212
     22 C         141.0896  139.7893  165.6134 C.ar    1  UNL1       -0.0023
     23 C         141.8056  138.9816  164.5717 C.ar    1  UNL1       -0.0026
     24 C         143.0618  138.2433  164.9277 C.ar    1  UNL1       -0.0003
     25 C         143.6022  138.3128  166.3252 C.ar    1  UNL1       -0.0000
     26 C         142.8863  139.1205  167.3669 C.ar    1  UNL1       -0.0003
     27 C         141.6299  139.8588  167.0109 C.ar    1  UNL1       -0.0024
     28 C         140.9140  140.6665  168.0526 C.ar    1  UNL1       -0.0003
     29 C         141.2065  142.1304  168.1984 C.ar    1  UNL1       -0.0000
     30 C         140.4906  142.9382  169.2400 C.ar    1  UNL1       -0.0000
     31 C         139.4821  142.2819  170.1359 C.ar    1  UNL1       -0.0000
     32 C         139.1896  140.8180  169.9900 C.ar    1  UNL1       -0.0000
     33 C         139.9056  140.0102  168.9483 C.ar    1  UNL1       -0.0000
@<TRIPOS>BOND
     1    17    18    1
     2    18    19    1
     3    18    20    1
     4    18    13    1
     5    13    14   am
     6    14    15    2
     7    14     1    1
     8     1     2    1
     9     2     3   ar
    10     3     4    1
    11     3     5   ar
    12     5     6   ar
    13     6     7   ar
    14     7     8   ar
    15     8     9    1
    16     9    10    2
    17     9    11   am
    18    11    21    1
    19    21    22    1
    20    22    23   ar
    21    23    24   ar
    22    24    25   ar
    23    25    26   ar
    24    26    27   ar
    25    27    28    1
    26    28    29   ar
    27    29    30   ar
    28    30    31   ar
    29    31    32   ar
    30    32    33   ar
    31    11     1    1
    32    27    22   ar
    33    33    28   ar
    34     8     2   ar
    35    13    16    1
    36     4    12    1
@<TRIPOS>MOLECULE
*****
 33 36 0 0 0
SMALL
GASTEIGER

@<TRIPOS>ATOM
      1 C         141.4964  140.5124  162.0888 C.3     1  UNL1        0.1783
      2 C         140.7922  141.3227  161.0412 C.ar    1  UNL1        0.0426
      3 C         139.4075  141.2394  160.4706 C.ar    1  UNL1        0.1318
      4 O         138.4561  140.1886  160.9611 O.3     1  UNL1       -0.5058
      5 C         138.9742  142.2070  159.4095 C.ar    1  UNL1        0.0364
      6 C         139.9256  143.2578  158.9190 C.ar    1  UNL1        0.0032
      7 C         141.3103  143.3411  159.4896 C.ar    1  UNL1        0.0045
      8 C         141.7436  142.3735  160.5507 C.ar    1  UNL1        0.0546
      9 C         143.0358  142.2126  161.2952 C.2     1  UNL1        0.2497
     10 O         144.2650  143.0543  161.1198 O.2     1  UNL1       -0.2699
     11 N         142.8831  141.0624  162.2458 N.am    1  UNL1       -0.2619
     12 H         138.7267  139.5842  161.6239 H       1  UNL1        0.2922
     13 N         139.7247  139.5619  163.7344 N.am    1  UNL1       -0.3059
     14 C         140.9159  139.3552  162.8464 C.2     1  UNL1        0.2449
     15 O         141.5265  137.9914  162.7162 O.2     1  UNL1       -0.2729
     16 H         139.3239  140.4571  163.8199 H       1  UNL1        0.1494
     17 C         138.5409  137.8773  163.2239 C.3     1  UNL1        0.0196
     18 C         139.1442  138.4048  164.4920 C.3     1  UNL1        0.0569
     19 C         139.7474  138.9323  165.7600 C.3     1  UNL1        0.0196
     20 C         138.5637  137.2476  165.2495 C.3     1  UNL1        0.0196
     21 C         143.9327  140.5518  163.1879 C.3     1  UNL1        0.1212
     22 C         143.5797  140.2573  164.6157 C.ar    1  UNL1       -0.0023
     23 C         143.8173  138.8879  165.1800 C.ar    1  UNL1       -0.0026
     24 C         143.4643  138.5934  166.6078 C.ar    1  UNL1       -0.0003
     25 C         142.8737  139.6683  167.4714 C.ar    1  UNL1       -0.0000
     26 C         142.6362  141.0377  166.9072 C.ar    1  UNL1       -0.0003
     27 C         142.9892  141.3322  165.4793 C.ar    1  UNL1       -0.0024
     28 C         142.7516  142.7016  164.9152 C.ar    1  UNL1       -0.0003
     29 C         143.9098  143.6220  164.6674 C.ar    1  UNL1       -0.0000
     30 C         143.6722  144.9914  164.1032 C.ar    1  UNL1       -0.0000
     31 C         142.2763  145.4404  163.7868 C.ar    1  UNL1       -0.0000
     32 C         141.1181  144.5200  164.0345 C.ar    1  UNL1       -0.0000
     33 C         141.3558  143.1505  164.5987 C.ar    1  UNL1       -0.0000
@<TRIPOS>BOND
     1    17    18    1
     2    18    19    1
     3    18    20    1
     4    18    13    1
     5    13    14   am
     6    14    15    2
     7    14     1    1
     8     1     2    1
     9     2     3   ar
    10     3     4    1
    11     3     5   ar
    12     5     6   ar
    13     6     7   ar
    14     7     8   ar
    15     8     9    1
    16     9    10    2
    17     9    11   am
    18    11    21    1
    19    21    22    1
    20    22    23   ar
    21    23    24   ar
    22    24    25   ar
    23    25    26   ar
    24    26    27   ar
    25    27    28    1
    26    28    29   ar
    27    29    30   ar
    28    30    31   ar
    29    31    32   ar
    30    32    33   ar
    31    11     1    1
    32    27    22   ar
    33    33    28   ar
    34     8     2   ar
    35    13    16    1
    36     4    12    1
@<TRIPOS>MOLECULE
*****
 33 36 0 0 0
SMALL
GASTEIGER

@<TRIPOS>ATOM
      1 C         140.7070  142.2331  163.6008 C.3     1  UNL1        0.1783
      2 C         140.4778  142.9301  162.2925 C.ar    1  UNL1        0.0426
      3 C         139.4978  142.6861  161.1834 C.ar    1  UNL1        0.1318
      4 O         138.5106  141.5617  161.2888 O.3     1  UNL1       -0.5058
      5 C         139.5050  143.5666  159.9691 C.ar    1  UNL1        0.0364
      6 C         140.4922  144.6910  159.8638 C.ar    1  UNL1        0.0032
      7 C         141.4722  144.9349  160.9728 C.ar    1  UNL1        0.0045
      8 C         141.4651  144.0545  162.1871 C.ar    1  UNL1        0.0546
      9 C         142.3043  144.0524  163.4304 C.2     1  UNL1        0.2497
     10 O         143.4168  145.0082  163.7447 O.2     1  UNL1       -0.2699
     11 N         141.8358  142.9268  164.3041 N.am    1  UNL1       -0.2619
     12 H         138.5061  141.0117  162.0474 H       1  UNL1        0.2922
     13 N         140.1468  139.6981  163.4989 N.am    1  UNL1       -0.3059
     14 C         139.9416  141.0502  164.1155 C.2     1  UNL1        0.2449
     15 O         138.9712  141.2191  165.2466 O.2     1  UNL1       -0.2729
     16 H         140.7838  139.5872  162.7565 H       1  UNL1        0.1494
     17 C         140.4129  138.3137  165.0840 C.3     1  UNL1        0.0196
     18 C         139.3814  138.5152  164.0136 C.3     1  UNL1        0.0569
     19 C         138.3501  138.7168  162.9433 C.3     1  UNL1        0.0196
     20 C         138.6162  137.3323  164.5283 C.3     1  UNL1        0.0196
     21 C         142.3975  142.5593  165.6455 C.3     1  UNL1        0.1212
     22 C         142.8574  141.1557  165.9071 C.ar    1  UNL1       -0.0023
     23 C         143.6462  140.4185  164.8657 C.ar    1  UNL1       -0.0026
     24 C         144.1061  139.0150  165.1272 C.ar    1  UNL1       -0.0003
     25 C         143.7773  138.3485  166.4302 C.ar    1  UNL1       -0.0000
     26 C         142.9886  139.0856  167.4716 C.ar    1  UNL1       -0.0003
     27 C         142.5286  140.4893  167.2101 C.ar    1  UNL1       -0.0024
     28 C         141.7399  141.2264  168.2514 C.ar    1  UNL1       -0.0003
     29 C         142.3263  142.4335  168.9215 C.ar    1  UNL1       -0.0000
     30 C         141.5376  143.1706  169.9629 C.ar    1  UNL1       -0.0000
     31 C         140.1624  142.7005  170.3343 C.ar    1  UNL1       -0.0000
     32 C         139.5759  141.4934  169.6643 C.ar    1  UNL1       -0.0000
     33 C         140.3647  140.7563  168.6228 C.ar    1  UNL1       -0.0000
@<TRIPOS>BOND
     1    17    18    1
     2    18    19    1
     3    18    20    1
     4    18    13    1
     5    13    14   am
     6    14    15    2
     7    14     1    1
     8     1     2    1
     9     2     3   ar
    10     3     4    1
    11     3     5   ar
    12     5     6   ar
    13     6     7   ar
    14     7     8   ar
    15     8     9    1
    16     9    10    2
    17     9    11   am
    18    11    21    1
    19    21    22    1
    20    22    23   ar
    21    23    24   ar
    22    24    25   ar
    23    25    26   ar
    24    26    27   ar
    25    27    28    1
    26    28    29   ar
    27    29    30   ar
    28    30    31   ar
    29    31    32   ar
    30    32    33   ar
    31    11     1    1
    32    27    22   ar
    33    33    28   ar
    34     8     2   ar
    35    13    16    1
    36     4    12    1
@<TRIPOS>MOLECULE
*****
 33 36 0 0 0
SMALL
GASTEIGER

@<TRIPOS>ATOM
      1 C         140.3388  140.3231  164.0089 C.3     1  UNL1        0.1783
      2 C         139.4908  139.3868  164.8178 C.ar    1  UNL1        0.0426
      3 C         138.9679  138.0094  164.5365 C.ar    1  UNL1        0.1318
      4 O         139.2869  137.3376  163.2338 O.3     1  UNL1       -0.5058
      5 C         138.1259  137.3038  165.5578 C.ar    1  UNL1        0.0364
      6 C         137.8069  137.9756  166.8605 C.ar    1  UNL1        0.0032
      7 C         138.3298  139.3530  167.1418 C.ar    1  UNL1        0.0045
      8 C         139.1718  140.0587  166.1204 C.ar    1  UNL1        0.0546
      9 C         139.8227  141.4101  166.1166 C.2     1  UNL1        0.2497
     10 O         139.7628  142.4206  167.2234 O.2     1  UNL1       -0.2699
     11 N         140.5440  141.5735  164.8116 N.am    1  UNL1       -0.2619
     12 H         139.8128  137.7784  162.5958 H       1  UNL1        0.2922
     13 N         141.8883  138.9593  162.4310 N.am    1  UNL1       -0.3059
     14 C         140.8857  140.0558  162.6379 C.2     1  UNL1        0.2449
     15 O         140.4302  140.8848  161.4739 O.2     1  UNL1       -0.2729
     16 H         142.1873  138.4151  163.1950 H       1  UNL1        0.1494
     17 C         143.7355  139.3268  161.4552 C.3     1  UNL1        0.0196
     18 C         142.4352  138.6919  161.0601 C.3     1  UNL1        0.0569
     19 C         141.1348  138.0571  160.6651 C.3     1  UNL1        0.0196
     20 C         142.9821  138.4247  159.6893 C.3     1  UNL1        0.0196
     21 C         141.3320  142.7762  164.3843 C.3     1  UNL1        0.1212
     22 C         142.7279  142.6110  163.8608 C.ar    1  UNL1       -0.0023
     23 C         143.0965  143.1698  162.5184 C.ar    1  UNL1       -0.0026
     24 C         144.4924  143.0046  161.9948 C.ar    1  UNL1       -0.0003
     25 C         145.5197  142.2806  162.8136 C.ar    1  UNL1       -0.0000
     26 C         145.1512  141.7218  164.1559 C.ar    1  UNL1       -0.0003
     27 C         143.7552  141.8870  164.6795 C.ar    1  UNL1       -0.0024
     28 C         143.3867  141.3282  166.0219 C.ar    1  UNL1       -0.0003
     29 C         143.2679  142.2401  167.2069 C.ar    1  UNL1       -0.0000
     30 C         142.8993  141.6813  168.5493 C.ar    1  UNL1       -0.0000
     31 C         142.6495  140.2106  168.7066 C.ar    1  UNL1       -0.0000
     32 C         142.7683  139.2987  167.5215 C.ar    1  UNL1       -0.0000
     33 C         143.1369  139.8576  166.1791 C.ar    1  UNL1       -0.0000
@<TRIPOS>BOND
     1    17    18    1
     2    18    19    1
     3    18    20    1
     4    18    13    1
     5    13    14   am
     6    14    15    2
     7    14     1    1
     8     1     2    1
     9     2     3   ar
    10     3     4    1
    11     3     5   ar
    12     5     6   ar
    13     6     7   ar
    14     7     8   ar
    15     8     9    1
    16     9    10    2
    17     9    11   am
    18    11    21    1
    19    21    22    1
    20    22    23   ar
    21    23    24   ar
    22    24    25   ar
    23    25    26   ar
    24    26    27   ar
    25    27    28    1
    26    28    29   ar
    27    29    30   ar
    28    30    31   ar
    29    31    32   ar
    30    32    33   ar
    31    11     1    1
    32    27    22   ar
    33    33    28   ar
    34     8     2   ar
    35    13    16    1
    36     4    12    1
