@<TRIPOS>MOLECULE
*****
 31 34 0 0 0
SMALL
GASTEIGER

@<TRIPOS>ATOM
      1 C         142.7482  141.0991  166.0784 C.2     1  UNL1        0.3340
      2 N         141.8309  140.4430  165.0894 N.2     1  UNL1       -0.0600
      3 C         142.5000  140.4707  163.7472 C.3     1  UNL1        0.2526
      4 CA        143.8310  141.1440  163.9067 C.3     1  UNL1        0.2391
      5 N         143.9843  141.5324  165.3474 N.pl3   1  UNL1       -0.2149
      6 H         144.7600  141.9911  165.7437 H       1  UNL1        0.2924
      7 C         141.2547  139.7728  163.2871 C.ar    1  UNL1        0.0298
      8 C         140.0826  140.5727  162.8008 C.ar    1  UNL1        0.0025
      9 C         138.8373  139.8747  162.3407 C.ar    1  UNL1        0.0295
     10 C         138.7638  138.3767  162.3667 C.ar    1  UNL1        0.1401
     11 F         137.5184  137.6788  161.9066 F       1  UNL1       -0.2042
     12 C         139.9358  137.5767  162.8529 C.ar    1  UNL1        0.0295
     13 C         141.1813  138.2747  163.3131 C.ar    1  UNL1        0.0025
     14 C         142.9089  140.3525  162.3089 C.ar    1  UNL1        0.0298
     15 C         143.6530  139.1381  161.8381 C.ar    1  UNL1        0.0025
     16 C         144.0619  139.0199  160.3997 C.ar    1  UNL1        0.0295
     17 C         143.7266  140.1161  159.4322 C.ar    1  UNL1        0.1401
     18 F         144.1355  139.9978  157.9938 F       1  UNL1       -0.2042
     19 C         142.9825  141.3303  159.9031 C.ar    1  UNL1        0.0295
     20 C         142.5737  141.4486  161.3414 C.ar    1  UNL1        0.0025
     21 C         141.4119  142.6619  169.4728 C.ar    1  UNL1        0.0717
     22 C         141.9343  141.6681  170.4674 C.ar    1  UNL1        0.0310
     23 C         142.7281  140.4846  169.9990 C.ar    1  UNL1        0.0998
     24 N         142.9993  140.2949  168.5360 N.ar    1  UNL1       -0.2364
     25 C         142.4769  141.2888  167.5414 C.ar    1  UNL1        0.1633
     26 C         141.6832  142.4722  168.0098 C.ar    1  UNL1        0.0370
     27 N         139.8244  145.0288  170.4096 N.1     1  UNL1       -0.1908
     28 C         140.6181  143.8454  169.9412 C.1     1  UNL1        0.1005
     29 C         144.8327  141.3863  162.8168 C.3     1  UNL1        0.1890
     30 O         146.2321  141.8009  163.1630 O.3     1  UNL1       -0.3781
     31 H         146.2174  142.6818  163.5687 H       1  UNL1        0.2106
@<TRIPOS>BOND
     1    27    28    3
     2    28    21    1
     3    21    22   ar
     4    22    23   ar
     5    23    24   ar
     6    24    25   ar
     7    25     1    1
     8     1     2    2
     9     2     3    1
    10     3     7    1
    11     7     8   ar
    12     8     9   ar
    13     9    10   ar
    14    10    11    1
    15    10    12   ar
    16    12    13   ar
    17     3    14    1
    18    14    15   ar
    19    15    16   ar
    20    16    17   ar
    21    17    18    1
    22    17    19   ar
    23    19    20   ar
    24     3     4    1
    25     4    29    1
    26    29    30    1
    27     4     5    1
    28    25    26   ar
    29    26    21   ar
    30     5     1    1
    31    13     7   ar
    32    20    14   ar
    33    30    31    1
    34     5     6    1
@<TRIPOS>MOLECULE
*****
 31 34 0 0 0
SMALL
GASTEIGER

@<TRIPOS>ATOM
      1 C         142.8698  141.3184  166.1338 C.2     1  UNL1        0.3340
      2 N         141.9856  140.5656  165.1844 N.2     1  UNL1       -0.0600
      3 C         142.6267  140.5986  163.8287 C.3     1  UNL1        0.2526
      4 CA        143.9073  141.3719  163.9404 C.3     1  UNL1        0.2391
      5 N         144.0574  141.8167  165.3650 N.pl3   1  UNL1       -0.2149
      6 H         144.8044  142.3433  165.7311 H       1  UNL1        0.2924
      7 C         141.4280  139.7973  163.4157 C.ar    1  UNL1        0.0298
      8 C         141.3962  138.3170  163.6560 C.ar    1  UNL1        0.0025
      9 C         140.1974  137.5157  163.2429 C.ar    1  UNL1        0.0295
     10 C         139.0303  138.1946  162.5895 C.ar    1  UNL1        0.1401
     11 F         137.8315  137.3932  162.1764 F       1  UNL1       -0.2042
     12 C         139.0620  139.6749  162.3491 C.ar    1  UNL1        0.0295
     13 C         140.2608  140.4763  162.7622 C.ar    1  UNL1        0.0025
     14 C         143.0173  140.4642  162.3867 C.ar    1  UNL1        0.0298
     15 C         142.6474  141.5375  161.4063 C.ar    1  UNL1        0.0025
     16 C         143.0379  141.4031  159.9642 C.ar    1  UNL1        0.0295
     17 C         143.7984  140.1953  159.5027 C.ar    1  UNL1        0.1401
     18 F         144.1890  140.0609  158.0607 F       1  UNL1       -0.2042
     19 C         144.1683  139.1221  160.4832 C.ar    1  UNL1        0.0295
     20 C         143.7777  139.2565  161.9251 C.ar    1  UNL1        0.0025
     21 C         141.2719  140.9770  169.7505 C.ar    1  UNL1        0.0717
     22 C         142.0953  141.9677  170.5188 C.ar    1  UNL1        0.0310
     23 C         143.1768  142.7420  169.8256 C.ar    1  UNL1        0.0998
     24 N         143.4350  142.5256  168.3639 N.ar    1  UNL1       -0.2364
     25 C         142.6116  141.5349  167.5956 C.ar    1  UNL1        0.1633
     26 C         141.5301  140.7606  168.2888 C.ar    1  UNL1        0.0370
     27 N         139.1087  139.4284  171.1370 N.1     1  UNL1       -0.1908
     28 C         140.1903  140.2027  170.4438 C.1     1  UNL1        0.1005
     29 C         144.8688  141.6513  162.8234 C.3     1  UNL1        0.1890
     30 O         146.3260  141.8474  163.1197 O.3     1  UNL1       -0.3781
     31 H         146.4439  142.6565  163.6415 H       1  UNL1        0.2106
@<TRIPOS>BOND
     1    27    28    3
     2    28    21    1
     3    21    22   ar
     4    22    23   ar
     5    23    24   ar
     6    24    25   ar
     7    25     1    1
     8     1     2    2
     9     2     3    1
    10     3     7    1
    11     7     8   ar
    12     8     9   ar
    13     9    10   ar
    14    10    11    1
    15    10    12   ar
    16    12    13   ar
    17     3    14    1
    18    14    15   ar
    19    15    16   ar
    20    16    17   ar
    21    17    18    1
    22    17    19   ar
    23    19    20   ar
    24     3     4    1
    25     4    29    1
    26    29    30    1
    27     4     5    1
    28    25    26   ar
    29    26    21   ar
    30     5     1    1
    31    13     7   ar
    32    20    14   ar
    33    30    31    1
    34     5     6    1
@<TRIPOS>MOLECULE
*****
 31 34 0 0 0
SMALL
GASTEIGER

@<TRIPOS>ATOM
      1 C         139.7624  140.4277  166.3945 C.2     1  UNL1        0.3340
      2 N         139.6628  141.5226  165.3741 N.2     1  UNL1       -0.0600
      3 C         139.4510  140.8874  164.0318 C.3     1  UNL1        0.2526
      4 CA        139.4197  139.3999  164.2228 C.3     1  UNL1        0.2391
      5 N         139.6121  139.1158  165.6830 N.pl3   1  UNL1       -0.2149
      6 H         139.6357  138.2247  166.1009 H       1  UNL1        0.2924
      7 C         139.4375  142.3039  163.5388 C.ar    1  UNL1        0.0298
      8 C         138.1331  143.0206  163.3518 C.ar    1  UNL1        0.0025
      9 C         138.1196  144.4371  162.8587 C.ar    1  UNL1        0.0295
     10 C         139.4105  145.1371  162.5527 C.ar    1  UNL1        0.1401
     11 F         139.3969  146.5537  162.0597 F       1  UNL1       -0.2042
     12 C         140.7149  144.4206  162.7398 C.ar    1  UNL1        0.0295
     13 C         140.7284  143.0040  163.2328 C.ar    1  UNL1        0.0025
     14 C         139.2364  140.5483  162.5865 C.ar    1  UNL1        0.0298
     15 C         140.4104  140.4411  161.6590 C.ar    1  UNL1        0.0025
     16 C         140.1958  140.1020  160.2136 C.ar    1  UNL1        0.0295
     17 C         138.8071  139.8702  159.6959 C.ar    1  UNL1        0.1401
     18 F         138.5925  139.5312  158.2505 F       1  UNL1       -0.2042
     19 C         137.6333  139.9775  160.6234 C.ar    1  UNL1        0.0295
     20 C         137.8479  140.3166  162.0688 C.ar    1  UNL1        0.0025
     21 C         141.2004  141.7872  169.8346 C.ar    1  UNL1        0.0717
     22 C         140.4001  140.9816  170.8146 C.ar    1  UNL1        0.0310
     23 C         139.3872  139.9913  170.3212 C.ar    1  UNL1        0.0998
     24 N         139.1746  139.8067  168.8479 N.ar    1  UNL1       -0.2364
     25 C         139.9750  140.6123  167.8679 C.ar    1  UNL1        0.1633
     26 C         140.9878  141.6026  168.3613 C.ar    1  UNL1        0.0370
     27 N         143.2262  143.7678  170.8213 N.1     1  UNL1       -0.1908
     28 C         142.2133  142.7775  170.3279 C.1     1  UNL1        0.1005
     29 C         139.2293  138.3762  163.1430 C.3     1  UNL1        0.1890
     30 O         140.2021  137.2429  163.0040 O.3     1  UNL1       -0.3781
     31 H         141.0698  137.5914  162.7461 H       1  UNL1        0.2106
@<TRIPOS>BOND
     1    27    28    3
     2    28    21    1
     3    21    22   ar
     4    22    23   ar
     5    23    24   ar
     6    24    25   ar
     7    25     1    1
     8     1     2    2
     9     2     3    1
    10     3     7    1
    11     7     8   ar
    12     8     9   ar
    13     9    10   ar
    14    10    11    1
    15    10    12   ar
    16    12    13   ar
    17     3    14    1
    18    14    15   ar
    19    15    16   ar
    20    16    17   ar
    21    17    18    1
    22    17    19   ar
    23    19    20   ar
    24     3     4    1
    25     4    29    1
    26    29    30    1
    27     4     5    1
    28    25    26   ar
    29    26    21   ar
    30     5     1    1
    31    13     7   ar
    32    20    14   ar
    33    30    31    1
    34     5     6    1
@<TRIPOS>MOLECULE
*****
 31 34 0 0 0
SMALL
GASTEIGER

@<TRIPOS>ATOM
      1 C         142.6460  140.7552  166.1221 C.2     1  UNL1        0.3340
      2 N         142.0832  141.8089  165.2149 N.2     1  UNL1       -0.0600
      3 C         142.7204  141.6483  163.8665 C.3     1  UNL1        0.2526
      4 CA        143.6771  140.4953  163.9404 C.3     1  UNL1        0.2391
      5 N         143.6311  139.9434  165.3344 N.pl3   1  UNL1       -0.2149
      6 H         144.1555  139.1820  165.6729 H       1  UNL1        0.2924
      7 C         141.8593  142.8187  163.4946 C.ar    1  UNL1        0.0298
      8 C         142.3757  144.2160  163.6714 C.ar    1  UNL1        0.0025
      9 C         141.5145  145.3864  163.2994 C.ar    1  UNL1        0.0295
     10 C         140.1370  145.1598  162.7506 C.ar    1  UNL1        0.1401
     11 F         139.2759  146.3303  162.3787 F       1  UNL1       -0.2042
     12 C         139.6206  143.7626  162.5738 C.ar    1  UNL1        0.0295
     13 C         140.4817  142.5921  162.9458 C.ar    1  UNL1        0.0025
     14 C         143.1776  141.7324  162.4404 C.ar    1  UNL1        0.0298
     15 C         144.3826  142.5525  162.0863 C.ar    1  UNL1        0.0025
     16 C         144.8399  142.6367  160.6601 C.ar    1  UNL1        0.0295
     17 C         144.0921  141.9006  159.5882 C.ar    1  UNL1        0.1401
     18 F         144.5493  141.9847  158.1620 F       1  UNL1       -0.2042
     19 C         142.8871  141.0805  159.9423 C.ar    1  UNL1        0.0295
     20 C         142.4299  140.9964  161.3685 C.ar    1  UNL1        0.0025
     21 C         141.0432  141.3319  169.7065 C.ar    1  UNL1        0.0717
     22 C         141.5683  140.1381  170.4473 C.ar    1  UNL1        0.0310
     23 C         142.4527  139.1499  169.7464 C.ar    1  UNL1        0.0998
     24 N         142.8120  139.3556  168.3047 N.ar    1  UNL1       -0.2364
     25 C         142.2868  140.5494  167.5639 C.ar    1  UNL1        0.1633
     26 C         141.4024  141.5376  168.2648 C.ar    1  UNL1        0.0370
     27 N         139.2743  143.3083  171.1084 N.1     1  UNL1       -0.1908
     28 C         140.1587  142.3201  170.4075 C.1     1  UNL1        0.1005
     29 C         144.5301  139.9841  162.8174 C.3     1  UNL1        0.1890
     30 O         144.5367  138.5210  162.4866 O.3     1  UNL1       -0.3781
     31 H         144.9247  138.0246  163.2241 H       1  UNL1        0.2106
@<TRIPOS>BOND
     1    27    28    3
     2    28    21    1
     3    21    22   ar
     4    22    23   ar
     5    23    24   ar
     6    24    25   ar
     7    25     1    1
     8     1     2    2
     9     2     3    1
    10     3     7    1
    11     7     8   ar
    12     8     9   ar
    13     9    10   ar
    14    10    11    1
    15    10    12   ar
    16    12    13   ar
    17     3    14    1
    18    14    15   ar
    19    15    16   ar
    20    16    17   ar
    21    17    18    1
    22    17    19   ar
    23    19    20   ar
    24     3     4    1
    25     4    29    1
    26    29    30    1
    27     4     5    1
    28    25    26   ar
    29    26    21   ar
    30     5     1    1
    31    13     7   ar
    32    20    14   ar
    33    30    31    1
    34     5     6    1
@<TRIPOS>MOLECULE
*****
 31 34 0 0 0
SMALL
GASTEIGER

@<TRIPOS>ATOM
      1 C         140.5771  142.3335  160.6618 C.2     1  UNL1        0.3340
      2 N         141.4033  141.5640  161.6494 N.2     1  UNL1       -0.0600
      3 C         140.4682  140.8188  162.5551 C.3     1  UNL1        0.2526
      4 CA        139.0641  141.1278  162.1272 C.3     1  UNL1        0.2391
      5 N         139.1314  142.0639  160.9571 N.pl3   1  UNL1       -0.2149
      6 H         138.3619  142.4360  160.4687 H       1  UNL1        0.2924
      7 C         141.7320  140.3329  163.2005 C.ar    1  UNL1        0.0298
      8 C         142.2123  140.9604  164.4755 C.ar    1  UNL1        0.0025
      9 C         143.4761  140.4744  165.1209 C.ar    1  UNL1        0.0295
     10 C         144.2597  139.3610  164.4913 C.ar    1  UNL1        0.1401
     11 F         145.5235  138.8750  165.1368 F       1  UNL1       -0.2042
     12 C         143.7794  138.7335  163.2163 C.ar    1  UNL1        0.0295
     13 C         142.5156  139.2194  162.5709 C.ar    1  UNL1        0.0025
     14 C         139.7973  139.9721  163.5957 C.ar    1  UNL1        0.0298
     15 C         139.5783  138.5095  163.3454 C.ar    1  UNL1        0.0025
     16 C         138.9073  137.6627  164.3861 C.ar    1  UNL1        0.0295
     17 C         138.4555  138.2787  165.6770 C.ar    1  UNL1        0.1401
     18 F         137.7845  137.4319  166.7176 F       1  UNL1       -0.2042
     19 C         138.6745  139.7413  165.9272 C.ar    1  UNL1        0.0295
     20 C         139.3454  140.5880  164.8866 C.ar    1  UNL1        0.0025
     21 C         140.7762  145.2036  157.9281 C.ar    1  UNL1        0.0717
     22 C         142.1583  144.9851  157.3878 C.ar    1  UNL1        0.0310
     23 C         143.0134  143.8827  157.9388 C.ar    1  UNL1        0.0998
     24 N         142.4863  142.9989  159.0301 N.ar    1  UNL1       -0.2364
     25 C         141.1042  143.2174  159.5704 C.ar    1  UNL1        0.1633
     26 C         140.2491  144.3197  159.0194 C.ar    1  UNL1        0.0370
     27 N         139.0660  147.4084  156.8261 N.1     1  UNL1       -0.1908
     28 C         139.9211  146.3060  157.3771 C.1     1  UNL1        0.1005
     29 C         137.8124  140.5943  162.7586 C.3     1  UNL1        0.1890
     30 O         136.6416  141.5037  162.9878 O.3     1  UNL1       -0.3781
     31 H         136.8794  142.1780  163.6433 H       1  UNL1        0.2106
@<TRIPOS>BOND
     1    27    28    3
     2    28    21    1
     3    21    22   ar
     4    22    23   ar
     5    23    24   ar
     6    24    25   ar
     7    25     1    1
     8     1     2    2
     9     2     3    1
    10     3     7    1
    11     7     8   ar
    12     8     9   ar
    13     9    10   ar
    14    10    11    1
    15    10    12   ar
    16    12    13   ar
    17     3    14    1
    18    14    15   ar
    19    15    16   ar
    20    16    17   ar
    21    17    18    1
    22    17    19   ar
    23    19    20   ar
    24     3     4    1
    25     4    29    1
    26    29    30    1
    27     4     5    1
    28    25    26   ar
    29    26    21   ar
    30     5     1    1
    31    13     7   ar
    32    20    14   ar
    33    30    31    1
    34     5     6    1
@<TRIPOS>MOLECULE
*****
 31 34 0 0 0
SMALL
GASTEIGER

@<TRIPOS>ATOM
      1 C         141.9884  139.3589  163.9258 C.2     1  UNL1        0.3340
      2 N         141.0255  140.4628  164.2492 N.2     1  UNL1       -0.0600
      3 C         141.0436  140.6734  165.7342 C.3     1  UNL1        0.2526
      4 CA        142.0177  139.6998  166.3286 C.3     1  UNL1        0.2391
      5 N         142.6015  138.8874  165.2110 N.pl3   1  UNL1       -0.2149
      6 H         143.2698  138.1705  165.3045 H       1  UNL1        0.2924
      7 C         140.0291  141.7375  165.4373 C.ar    1  UNL1        0.0298
      8 C         140.3595  143.1794  165.6865 C.ar    1  UNL1        0.0025
      9 C         139.3450  144.2435  165.3896 C.ar    1  UNL1        0.0295
     10 C         137.9999  143.8659  164.8433 C.ar    1  UNL1        0.1401
     11 F         136.9854  144.9301  164.5464 F       1  UNL1       -0.2042
     12 C         137.6695  142.4242  164.5941 C.ar    1  UNL1        0.0295
     13 C         138.6840  141.3600  164.8910 C.ar    1  UNL1        0.0025
     14 C         140.8496  141.1065  167.1571 C.ar    1  UNL1        0.0298
     15 C         141.7528  142.1442  167.7550 C.ar    1  UNL1        0.0025
     16 C         141.5589  142.5774  169.1780 C.ar    1  UNL1        0.0295
     17 C         140.4616  141.9728  170.0030 C.ar    1  UNL1        0.1401
     18 F         140.2677  142.4059  171.4260 F       1  UNL1       -0.2042
     19 C         139.5585  140.9352  169.4051 C.ar    1  UNL1        0.0295
     20 C         139.7525  140.5020  167.9821 C.ar    1  UNL1        0.0025
     21 C         141.5497  138.3760  160.1059 C.ar    1  UNL1        0.0717
     22 C         142.8805  137.7455  159.8208 C.ar    1  UNL1        0.0310
     23 C         143.9140  137.6528  160.9041 C.ar    1  UNL1        0.0998
     24 N         143.6166  138.1906  162.2724 N.ar    1  UNL1       -0.2364
     25 C         142.2858  138.8211  162.5575 C.ar    1  UNL1        0.1633
     26 C         141.2523  138.9138  161.4742 C.ar    1  UNL1        0.0370
     27 N         139.4827  138.5614  157.9395 N.1     1  UNL1       -0.1908
     28 C         140.5162  138.4687  159.0227 C.1     1  UNL1        0.1005
     29 C         142.3496  139.5626  167.7850 C.3     1  UNL1        0.1890
     30 O         143.3705  138.5579  168.2302 O.3     1  UNL1       -0.3781
     31 H         143.0415  137.6626  168.0537 H       1  UNL1        0.2106
@<TRIPOS>BOND
     1    27    28    3
     2    28    21    1
     3    21    22   ar
     4    22    23   ar
     5    23    24   ar
     6    24    25   ar
     7    25     1    1
     8     1     2    2
     9     2     3    1
    10     3     7    1
    11     7     8   ar
    12     8     9   ar
    13     9    10   ar
    14    10    11    1
    15    10    12   ar
    16    12    13   ar
    17     3    14    1
    18    14    15   ar
    19    15    16   ar
    20    16    17   ar
    21    17    18    1
    22    17    19   ar
    23    19    20   ar
    24     3     4    1
    25     4    29    1
    26    29    30    1
    27     4     5    1
    28    25    26   ar
    29    26    21   ar
    30     5     1    1
    31    13     7   ar
    32    20    14   ar
    33    30    31    1
    34     5     6    1
@<TRIPOS>MOLECULE
*****
 31 34 0 0 0
SMALL
GASTEIGER

@<TRIPOS>ATOM
      1 C         140.7513  140.0582  166.1023 C.2     1  UNL1        0.3340
      2 N         140.3837  141.1288  165.1182 N.2     1  UNL1       -0.0600
      3 C         140.1571  140.4765  163.7866 C.3     1  UNL1        0.2526
      4 CA        140.3846  139.0026  163.9478 C.3     1  UNL1        0.2391
      5 N         140.7518  138.7441  165.3790 N.pl3   1  UNL1       -0.2149
      6 H         140.9572  137.8661  165.7742 H       1  UNL1        0.2924
      7 C         139.8697  141.8750  163.3270 C.ar    1  UNL1        0.0298
      8 C         140.9744  142.7237  162.7707 C.ar    1  UNL1        0.0025
      9 C         140.6869  144.1223  162.3111 C.ar    1  UNL1        0.0295
     10 C         139.2947  144.6723  162.4076 C.ar    1  UNL1        0.1401
     11 F         139.0073  146.0709  161.9479 F       1  UNL1       -0.2042
     12 C         138.1900  143.8236  162.9638 C.ar    1  UNL1        0.0295
     13 C         138.4774  142.4250  163.4235 C.ar    1  UNL1        0.0025
     14 C         139.8704  140.1165  162.3590 C.ar    1  UNL1        0.0298
     15 C         140.9856  140.0791  161.3565 C.ar    1  UNL1        0.0025
     16 C         140.6989  139.7191  159.9287 C.ar    1  UNL1        0.0295
     17 C         139.2970  139.3966  159.5037 C.ar    1  UNL1        0.1401
     18 F         139.0103  139.0366  158.0759 F       1  UNL1       -0.2042
     19 C         138.1819  139.4340  160.5062 C.ar    1  UNL1        0.0295
     20 C         138.4686  139.7940  161.9338 C.ar    1  UNL1        0.0025
     21 C         140.6050  141.4835  169.8033 C.ar    1  UNL1        0.0717
     22 C         141.6878  140.6795  170.4597 C.ar    1  UNL1        0.0310
     23 C         142.4585  139.6684  169.6637 C.ar    1  UNL1        0.0998
     24 N         142.1464  139.4612  168.2113 N.ar    1  UNL1       -0.2364
     25 C         141.0635  140.2652  167.5548 C.ar    1  UNL1        0.1633
     26 C         140.2928  141.2764  168.3509 C.ar    1  UNL1        0.0370
     27 N         139.0636  143.5057  171.3953 N.1     1  UNL1       -0.1908
     28 C         139.8343  142.4946  170.5993 C.1     1  UNL1        0.1005
     29 C         140.2658  137.9688  162.8675 C.3     1  UNL1        0.1890
     30 O         141.2120  136.8053  162.8354 O.3     1  UNL1       -0.3781
     31 H         142.1105  137.1241  162.6568 H       1  UNL1        0.2106
@<TRIPOS>BOND
     1    27    28    3
     2    28    21    1
     3    21    22   ar
     4    22    23   ar
     5    23    24   ar
     6    24    25   ar
     7    25     1    1
     8     1     2    2
     9     2     3    1
    10     3     7    1
    11     7     8   ar
    12     8     9   ar
    13     9    10   ar
    14    10    11    1
    15    10    12   ar
    16    12    13   ar
    17     3    14    1
    18    14    15   ar
    19    15    16   ar
    20    16    17   ar
    21    17    18    1
    22    17    19   ar
    23    19    20   ar
    24     3     4    1
    25     4    29    1
    26    29    30    1
    27     4     5    1
    28    25    26   ar
    29    26    21   ar
    30     5     1    1
    31    13     7   ar
    32    20    14   ar
    33    30    31    1
    34     5     6    1
@<TRIPOS>MOLECULE
*****
 31 34 0 0 0
SMALL
GASTEIGER

@<TRIPOS>ATOM
      1 C         142.2356  141.6282  166.4389 C.2     1  UNL1        0.3340
      2 N         141.7555  142.5255  165.3369 N.2     1  UNL1       -0.0600
      3 C         142.4583  142.1252  164.0737 C.3     1  UNL1        0.2526
      4 CA        143.3729  140.9804  164.3950 C.3     1  UNL1        0.2391
      5 N         143.2352  140.6733  165.8568 N.pl3   1  UNL1       -0.2149
      6 H         143.7165  139.9687  166.3479 H       1  UNL1        0.2924
      7 C         141.6557  143.2346  163.4616 C.ar    1  UNL1        0.0298
      8 C         142.0487  144.6630  163.6973 C.ar    1  UNL1        0.0025
      9 C         141.2459  145.7724  163.0852 C.ar    1  UNL1        0.0295
     10 C         140.0503  145.4537  162.2374 C.ar    1  UNL1        0.1401
     11 F         139.2476  146.5632  161.6253 F       1  UNL1       -0.2042
     12 C         139.6573  144.0254  162.0017 C.ar    1  UNL1        0.0295
     13 C         140.4600  142.9158  162.6138 C.ar    1  UNL1        0.0025
     14 C         142.9934  141.9568  162.6826 C.ar    1  UNL1        0.0298
     15 C         144.1607  142.7793  162.2233 C.ar    1  UNL1        0.0025
     16 C         144.6958  142.6109  160.8321 C.ar    1  UNL1        0.0295
     17 C         144.0636  141.6200  159.9003 C.ar    1  UNL1        0.1401
     18 F         144.5987  141.4516  158.5091 F       1  UNL1       -0.2042
     19 C         142.8964  140.7975  160.3596 C.ar    1  UNL1        0.0295
     20 C         142.3613  140.9659  161.7507 C.ar    1  UNL1        0.0025
     21 C         140.0896  141.0326  169.7237 C.ar    1  UNL1        0.0717
     22 C         140.9097  141.7752  170.7366 C.ar    1  UNL1        0.0310
     23 C         142.1717  142.4689  170.3169 C.ar    1  UNL1        0.0998
     24 N         142.6137  142.4199  168.8844 N.ar    1  UNL1       -0.2364
     25 C         141.7936  141.6772  167.8715 C.ar    1  UNL1        0.1633
     26 C         140.5316  140.9836  168.2912 C.ar    1  UNL1        0.0370
     27 N         137.5656  139.6452  170.5631 N.1     1  UNL1       -0.1908
     28 C         138.8276  140.3389  170.1434 C.1     1  UNL1        0.1005
     29 C         144.2680  140.2679  163.4249 C.3     1  UNL1        0.1890
     30 O         145.2763  139.2759  163.9241 O.3     1  UNL1       -0.3781
     31 H         145.9456  139.7348  164.4555 H       1  UNL1        0.2106
@<TRIPOS>BOND
     1    27    28    3
     2    28    21    1
     3    21    22   ar
     4    22    23   ar
     5    23    24   ar
     6    24    25   ar
     7    25     1    1
     8     1     2    2
     9     2     3    1
    10     3     7    1
    11     7     8   ar
    12     8     9   ar
    13     9    10   ar
    14    10    11    1
    15    10    12   ar
    16    12    13   ar
    17     3    14    1
    18    14    15   ar
    19    15    16   ar
    20    16    17   ar
    21    17    18    1
    22    17    19   ar
    23    19    20   ar
    24     3     4    1
    25     4    29    1
    26    29    30    1
    27     4     5    1
    28    25    26   ar
    29    26    21   ar
    30     5     1    1
    31    13     7   ar
    32    20    14   ar
    33    30    31    1
    34     5     6    1
@<TRIPOS>MOLECULE
*****
 31 34 0 0 0
SMALL
GASTEIGER

@<TRIPOS>ATOM
      1 C         140.7599  142.1224  163.1667 C.2     1  UNL1        0.3340
      2 N         140.1692  141.0186  163.9929 N.2     1  UNL1       -0.0600
      3 C         140.9207  140.9572  165.2897 C.3     1  UNL1        0.2526
      4 CA        141.9759  142.0231  165.2648 C.3     1  UNL1        0.2391
      5 N         141.8765  142.7432  163.9527 N.pl3   1  UNL1       -0.2149
      6 H         142.4444  143.4919  163.6590 H       1  UNL1        0.2924
      7 C         139.9817  139.8292  165.5991 C.ar    1  UNL1        0.0298
      8 C         140.0787  138.5416  164.8357 C.ar    1  UNL1        0.0025
      9 C         139.1397  137.4137  165.1452 C.ar    1  UNL1        0.0295
     10 C         138.1035  137.5732  166.2181 C.ar    1  UNL1        0.1401
     11 F         137.1645  136.4452  166.5275 F       1  UNL1       -0.2042
     12 C         138.0064  138.8608  166.9814 C.ar    1  UNL1        0.0295
     13 C         138.9455  139.9888  166.6720 C.ar    1  UNL1        0.0025
     14 C         141.4759  140.6600  166.6511 C.ar    1  UNL1        0.0298
     15 C         141.0923  141.5169  167.8209 C.ar    1  UNL1        0.0025
     16 C         141.6475  141.2198  169.1823 C.ar    1  UNL1        0.0295
     17 C         142.5863  140.0656  169.3738 C.ar    1  UNL1        0.1401
     18 F         143.1415  139.7684  170.7353 F       1  UNL1       -0.2042
     19 C         142.9697  139.2087  168.2040 C.ar    1  UNL1        0.0295
     20 C         142.4146  139.5059  166.8426 C.ar    1  UNL1        0.0025
     21 C         140.6592  143.9517  159.6462 C.ar    1  UNL1        0.0717
     22 C         139.4179  143.3550  159.0521 C.ar    1  UNL1        0.0310
     23 C         138.6239  142.3474  159.8295 C.ar    1  UNL1        0.0998
     24 N         139.0712  141.9365  161.2010 N.ar    1  UNL1       -0.2364
     25 C         140.3125  142.5333  161.7951 C.ar    1  UNL1        0.1633
     26 C         141.1065  143.5408  161.0177 C.ar    1  UNL1        0.0370
     27 N         142.2472  145.9668  158.0914 N.1     1  UNL1       -0.1908
     28 C         141.4532  144.9593  158.8688 C.1     1  UNL1        0.1005
     29 C         142.9580  142.3172  166.3598 C.3     1  UNL1        0.1890
     30 O         144.1702  143.1536  166.0753 O.3     1  UNL1       -0.3781
     31 H         144.7513  142.6815  165.4585 H       1  UNL1        0.2106
@<TRIPOS>BOND
     1    27    28    3
     2    28    21    1
     3    21    22   ar
     4    22    23   ar
     5    23    24   ar
     6    24    25   ar
     7    25     1    1
     8     1     2    2
     9     2     3    1
    10     3     7    1
    11     7     8   ar
    12     8     9   ar
    13     9    10   ar
    14    10    11    1
    15    10    12   ar
    16    12    13   ar
    17     3    14    1
    18    14    15   ar
    19    15    16   ar
    20    16    17   ar
    21    17    18    1
    22    17    19   ar
    23    19    20   ar
    24     3     4    1
    25     4    29    1
    26    29    30    1
    27     4     5    1
    28    25    26   ar
    29    26    21   ar
    30     5     1    1
    31    13     7   ar
    32    20    14   ar
    33    30    31    1
    34     5     6    1
