@<TRIPOS>MOLECULE
*****
 31 35 0 0 0
SMALL
GASTEIGER

@<TRIPOS>ATOM
      1 C         140.8352  144.4356  160.6691 C.ar    1  UNL1        0.1233
      2 C         140.3545  143.8331  161.9559 C.ar    1  UNL1        0.1179
      3 N         139.2916  144.7294  162.5188 N.ar    1  UNL1       -0.2257
      4 N         139.1153  145.8859  161.5799 N.ar    1  UNL1       -0.0635
      5 N         140.0693  145.7043  160.4367 N.ar    1  UNL1       -0.1287
      6 C         142.8656  143.4980  157.3906 C.ar    1  UNL1        0.1547
      7 C         141.8053  144.0646  158.2876 C.ar    1  UNL1        0.0400
      8 C         141.8956  143.8690  159.7720 C.ar    1  UNL1        0.0241
      9 C         143.0461  143.1067  160.3595 C.ar    1  UNL1        0.0033
     10 C         144.1064  142.5401  159.4625 C.ar    1  UNL1        0.0207
     11 C         144.0161  142.7358  157.9780 C.ar    1  UNL1        0.0994
     12 N         145.0765  142.1691  157.0810 N.ar    1  UNL1       -0.2839
     13 C         144.9013  141.0335  156.1168 C.ar    1  UNL1        0.1826
     14 N         146.2147  140.8012  155.4306 N.ar    1  UNL1       -0.2280
     15 C         147.2018  141.7932  155.9707 C.ar    1  UNL1        0.0786
     16 C         148.6398  141.9179  155.5625 C.3     1  UNL1        0.0538
     17 C         146.4983  142.6386  156.9907 C.ar    1  UNL1        0.0963
     18 C         142.4871  145.0546  155.3452 C.3     1  UNL1        0.2525
     19 O         142.7753  143.6936  155.9061 O.3     1  UNL1       -0.4700
     20 C         138.5374  144.5081  163.7964 C.3     1  UNL1        0.1556
     21 C         138.8611  143.3279  164.6637 C.ar    1  UNL1        0.0037
     22 C         138.1667  142.0177  164.4371 C.ar    1  UNL1       -0.0022
     23 C         138.4905  140.8374  165.3044 C.ar    1  UNL1        0.0013
     24 C         139.5086  140.9673  166.3983 C.ar    1  UNL1        0.0191
     25 C         140.2029  142.2775  166.6249 C.ar    1  UNL1        0.0826
     26 C         139.8792  143.4577  165.7575 C.ar    1  UNL1        0.0168
     27 N         141.2211  142.4074  167.7188 N.ar    1  UNL1       -0.2282
     28 C         142.6685  142.0246  167.6261 C.ar    1  UNL1        0.1020
     29 C         143.3125  142.3235  168.9474 C.ar    1  UNL1        0.0431
     30 C         142.2631  142.8911  169.8567 C.ar    1  UNL1        0.1221
     31 N         140.9706  142.9429  169.0973 N.ar    1  UNL1       -0.1635
@<TRIPOS>BOND
     1    18    19    1
     2    19     6    1
     3     6     7   ar
     4     7     8   ar
     5     8     1    1
     6     1     2   ar
     7     2     3   ar
     8     3    20    1
     9    20    21    1
    10    21    22   ar
    11    22    23   ar
    12    23    24   ar
    13    24    25   ar
    14    25    27    1
    15    27    28   ar
    16    28    29   ar
    17    29    30   ar
    18    30    31   ar
    19    25    26   ar
    20     3     4   ar
    21     4     5   ar
    22     8     9   ar
    23     9    10   ar
    24    10    11   ar
    25    11    12    1
    26    12    13   ar
    27    13    14   ar
    28    14    15   ar
    29    15    16    1
    30    15    17   ar
    31    11     6   ar
    32    17    12   ar
    33     5     1   ar
    34    26    21   ar
    35    31    27   ar
@<TRIPOS>MOLECULE
*****
 31 35 0 0 0
SMALL
GASTEIGER

@<TRIPOS>ATOM
      1 C         140.0362  138.5497  160.3173 C.ar    1  UNL1        0.1233
      2 C         141.3896  138.5063  159.6721 C.ar    1  UNL1        0.1179
      3 N         141.1937  138.3247  158.1960 N.ar    1  UNL1       -0.2257
      4 N         139.7193  138.2558  157.9290 N.ar    1  UNL1       -0.0635
      5 N         139.0039  138.3948  159.2401 N.ar    1  UNL1       -0.1287
      6 C         138.5933  139.9923  163.7213 C.ar    1  UNL1        0.1547
      7 C         138.8666  139.8238  162.2561 C.ar    1  UNL1        0.0400
      8 C         139.7630  138.7182  161.7826 C.ar    1  UNL1        0.0241
      9 C         140.3862  137.7812  162.7744 C.ar    1  UNL1        0.0033
     10 C         140.1129  137.9498  164.2396 C.ar    1  UNL1        0.0207
     11 C         139.2165  139.0554  164.7131 C.ar    1  UNL1        0.0994
     12 N         138.9433  139.2239  166.1784 N.ar    1  UNL1       -0.2839
     13 C         137.7910  138.6317  166.9342 C.ar    1  UNL1        0.1826
     14 N         137.9100  139.0560  168.3680 N.ar    1  UNL1       -0.2280
     15 C         139.1360  139.9106  168.4983 C.ar    1  UNL1        0.0786
     16 C         139.6355  140.5492  169.7602 C.3     1  UNL1        0.0538
     17 C         139.7745  140.0143  167.1450 C.ar    1  UNL1        0.0963
     18 C         138.2815  142.4244  164.5802 C.3     1  UNL1        0.2525
     19 O         137.6969  141.0979  164.1948 O.3     1  UNL1       -0.4700
     20 C         142.2814  138.2289  157.1675 C.3     1  UNL1        0.1556
     21 C         142.3797  137.0158  156.2907 C.ar    1  UNL1        0.0037
     22 C         141.7390  137.0169  154.9343 C.ar    1  UNL1       -0.0022
     23 C         141.8373  135.8039  154.0575 C.ar    1  UNL1        0.0013
     24 C         142.5763  134.5898  154.5369 C.ar    1  UNL1        0.0191
     25 C         143.2170  134.5887  155.8932 C.ar    1  UNL1        0.0826
     26 C         143.1187  135.8018  156.7700 C.ar    1  UNL1        0.0168
     27 N         143.9560  133.3746  156.3727 N.ar    1  UNL1       -0.2282
     28 C         144.4782  133.1514  157.7611 C.ar    1  UNL1        0.1020
     29 C         145.1475  131.8095  157.7943 C.ar    1  UNL1        0.0431
     30 C         145.0389  131.2032  156.4266 C.ar    1  UNL1        0.1221
     31 N         144.3026  132.1706  155.5480 N.ar    1  UNL1       -0.1635
@<TRIPOS>BOND
     1    18    19    1
     2    19     6    1
     3     6     7   ar
     4     7     8   ar
     5     8     1    1
     6     1     2   ar
     7     2     3   ar
     8     3    20    1
     9    20    21    1
    10    21    22   ar
    11    22    23   ar
    12    23    24   ar
    13    24    25   ar
    14    25    27    1
    15    27    28   ar
    16    28    29   ar
    17    29    30   ar
    18    30    31   ar
    19    25    26   ar
    20     3     4   ar
    21     4     5   ar
    22     8     9   ar
    23     9    10   ar
    24    10    11   ar
    25    11    12    1
    26    12    13   ar
    27    13    14   ar
    28    14    15   ar
    29    15    16    1
    30    15    17   ar
    31    11     6   ar
    32    17    12   ar
    33     5     1   ar
    34    26    21   ar
    35    31    27   ar
@<TRIPOS>MOLECULE
*****
 31 35 0 0 0
SMALL
GASTEIGER

@<TRIPOS>ATOM
      1 C         142.7652  138.6305  159.6833 C.ar    1  UNL1        0.1233
      2 C         141.6868  137.9799  158.8687 C.ar    1  UNL1        0.1179
      3 N         142.0422  138.1363  157.4198 N.ar    1  UNL1       -0.2257
      4 N         143.3403  138.8837  157.3390 N.ar    1  UNL1       -0.0635
      5 N         143.7871  139.1890  158.7379 N.ar    1  UNL1       -0.1287
      6 C         144.0676  139.3610  163.3603 C.ar    1  UNL1        0.1547
      7 C         144.0194  139.2827  161.8632 C.ar    1  UNL1        0.0400
      8 C         142.8133  138.7088  161.1806 C.ar    1  UNL1        0.0241
      9 C         141.6554  138.2132  161.9951 C.ar    1  UNL1        0.0033
     10 C         141.7035  138.2915  163.4922 C.ar    1  UNL1        0.0207
     11 C         142.9096  138.8654  164.1749 C.ar    1  UNL1        0.0994
     12 N         142.9578  138.9437  165.6721 N.ar    1  UNL1       -0.2839
     13 C         143.6319  137.9629  166.5851 C.ar    1  UNL1        0.1826
     14 N         143.4310  138.4296  167.9964 N.ar    1  UNL1       -0.2280
     15 C         142.6326  139.6989  167.9556 C.ar    1  UNL1        0.0786
     16 C         142.2022  140.5083  169.1429 C.3     1  UNL1        0.0538
     17 C         142.3402  140.0166  166.5192 C.ar    1  UNL1        0.0963
     18 C         145.5616  141.4039  163.9472 C.3     1  UNL1        0.2525
     19 O         145.2737  139.9349  164.0429 O.3     1  UNL1       -0.4700
     20 C         141.2402  137.6338  156.2560 C.3     1  UNL1        0.1556
     21 C         141.6701  136.3946  155.5282 C.ar    1  UNL1        0.0037
     22 C         141.2564  136.1808  154.1022 C.ar    1  UNL1       -0.0022
     23 C         141.6863  134.9416  153.3744 C.ar    1  UNL1        0.0013
     24 C         142.5299  133.9164  154.0725 C.ar    1  UNL1        0.0191
     25 C         142.9435  134.1302  155.4984 C.ar    1  UNL1        0.0826
     26 C         142.5136  135.3694  156.2262 C.ar    1  UNL1        0.0168
     27 N         143.7870  133.1049  156.1964 N.ar    1  UNL1       -0.2282
     28 C         144.1000  131.7280  155.6903 C.ar    1  UNL1        0.1020
     29 C         144.9721  131.0487  156.7043 C.ar    1  UNL1        0.0431
     30 C         145.1980  132.0058  157.8370 C.ar    1  UNL1        0.1221
     31 N         144.4656  133.2766  157.5231 N.ar    1  UNL1       -0.1635
@<TRIPOS>BOND
     1    18    19    1
     2    19     6    1
     3     6     7   ar
     4     7     8   ar
     5     8     1    1
     6     1     2   ar
     7     2     3   ar
     8     3    20    1
     9    20    21    1
    10    21    22   ar
    11    22    23   ar
    12    23    24   ar
    13    24    25   ar
    14    25    27    1
    15    27    28   ar
    16    28    29   ar
    17    29    30   ar
    18    30    31   ar
    19    25    26   ar
    20     3     4   ar
    21     4     5   ar
    22     8     9   ar
    23     9    10   ar
    24    10    11   ar
    25    11    12    1
    26    12    13   ar
    27    13    14   ar
    28    14    15   ar
    29    15    16    1
    30    15    17   ar
    31    11     6   ar
    32    17    12   ar
    33     5     1   ar
    34    26    21   ar
    35    31    27   ar
@<TRIPOS>MOLECULE
*****
 31 35 0 0 0
SMALL
GASTEIGER

@<TRIPOS>ATOM
      1 C         140.1669  144.2355  162.0966 C.ar    1  UNL1        0.1233
      2 C         140.7620  143.7253  160.8178 C.ar    1  UNL1        0.1179
      3 N         140.4859  144.7345  159.7429 N.ar    1  UNL1       -0.2257
      4 N         139.7201  145.8685  160.3575 N.ar    1  UNL1       -0.0635
      5 N         139.5229  145.5601  161.8121 N.ar    1  UNL1       -0.1287
      6 C         140.9392  141.5246  164.8903 C.ar    1  UNL1        0.1547
      7 C         140.8977  142.2173  163.5605 C.ar    1  UNL1        0.0400
      8 C         140.2084  143.5428  163.4265 C.ar    1  UNL1        0.0241
      9 C         139.5605  144.1755  164.6222 C.ar    1  UNL1        0.0033
     10 C         139.6020  143.4828  165.9520 C.ar    1  UNL1        0.0207
     11 C         140.2913  142.1574  166.0860 C.ar    1  UNL1        0.0994
     12 N         140.3328  141.4647  167.4159 N.ar    1  UNL1       -0.2839
     13 C         139.5403  140.2514  167.8032 C.ar    1  UNL1        0.1826
     14 N         139.8918  139.9006  169.2186 N.ar    1  UNL1       -0.2280
     15 C         140.9016  140.8970  169.7061 C.ar    1  UNL1        0.0786
     16 C         141.5287  140.9222  171.0685 C.3     1  UNL1        0.0538
     17 C         141.1741  141.8636  168.5920 C.ar    1  UNL1        0.0963
     18 C         143.0385  140.1351  165.5321 C.3     1  UNL1        0.2525
     19 O         141.6286  140.1992  165.0243 O.3     1  UNL1       -0.4700
     20 C         140.9025  144.6284  158.3058 C.3     1  UNL1        0.1556
     21 C         139.9896  145.1204  157.2220 C.ar    1  UNL1        0.0037
     22 C         139.1104  144.1534  156.4856 C.ar    1  UNL1       -0.0022
     23 C         138.1975  144.6454  155.4019 C.ar    1  UNL1        0.0013
     24 C         138.1638  146.1043  155.0544 C.ar    1  UNL1        0.0191
     25 C         139.0430  147.0711  155.7908 C.ar    1  UNL1        0.0826
     26 C         139.9559  146.5791  156.8746 C.ar    1  UNL1        0.0168
     27 N         139.0093  148.5300  155.4434 N.ar    1  UNL1       -0.2282
     28 C         138.3775  149.6168  156.2617 C.ar    1  UNL1        0.1020
     29 C         138.5792  150.9166  155.5407 C.ar    1  UNL1        0.0431
     30 C         139.3357  150.6331  154.2768 C.ar    1  UNL1        0.1221
     31 N         139.6015  149.1581  154.2167 N.ar    1  UNL1       -0.1635
@<TRIPOS>BOND
     1    18    19    1
     2    19     6    1
     3     6     7   ar
     4     7     8   ar
     5     8     1    1
     6     1     2   ar
     7     2     3   ar
     8     3    20    1
     9    20    21    1
    10    21    22   ar
    11    22    23   ar
    12    23    24   ar
    13    24    25   ar
    14    25    27    1
    15    27    28   ar
    16    28    29   ar
    17    29    30   ar
    18    30    31   ar
    19    25    26   ar
    20     3     4   ar
    21     4     5   ar
    22     8     9   ar
    23     9    10   ar
    24    10    11   ar
    25    11    12    1
    26    12    13   ar
    27    13    14   ar
    28    14    15   ar
    29    15    16    1
    30    15    17   ar
    31    11     6   ar
    32    17    12   ar
    33     5     1   ar
    34    26    21   ar
    35    31    27   ar
@<TRIPOS>MOLECULE
*****
 31 35 0 0 0
SMALL
GASTEIGER

@<TRIPOS>ATOM
      1 C         142.7216  138.9797  160.2820 C.ar    1  UNL1        0.1233
      2 C         141.5633  138.4117  159.5167 C.ar    1  UNL1        0.1179
      3 N         141.9713  138.2940  158.0780 N.ar    1  UNL1       -0.2257
      4 N         143.3818  138.7893  157.9542 N.ar    1  UNL1       -0.0635
      5 N         143.8454  139.2131  159.3163 N.ar    1  UNL1       -0.1287
      6 C         141.5036  139.8342  163.9612 C.ar    1  UNL1        0.1547
      7 C         141.4743  139.5496  162.4888 C.ar    1  UNL1        0.0400
      8 C         142.7509  139.2644  161.7545 C.ar    1  UNL1        0.0241
      9 C         144.0566  139.2640  162.4926 C.ar    1  UNL1        0.0033
     10 C         144.0859  139.5487  163.9650 C.ar    1  UNL1        0.0207
     11 C         142.8093  139.8338  164.6993 C.ar    1  UNL1        0.0994
     12 N         142.8386  140.1185  166.1718 N.ar    1  UNL1       -0.2839
     13 C         142.8635  139.0944  167.2675 C.ar    1  UNL1        0.1826
     14 N         142.8884  139.8202  168.5799 N.ar    1  UNL1       -0.2280
     15 C         142.8790  141.2930  168.2954 C.ar    1  UNL1        0.0786
     16 C         142.8972  142.3890  169.3193 C.3     1  UNL1        0.0538
     17 C         142.8482  141.4773  166.8071 C.ar    1  UNL1        0.0963
     18 C         139.3543  141.2615  164.2668 C.3     1  UNL1        0.2525
     19 O         140.2270  140.1194  164.6954 O.3     1  UNL1       -0.4700
     20 C         141.1186  137.7726  156.9595 C.3     1  UNL1        0.1556
     21 C         141.6366  136.6850  156.0657 C.ar    1  UNL1        0.0037
     22 C         141.3224  136.7064  154.5991 C.ar    1  UNL1       -0.0022
     23 C         141.8405  135.6188  153.7053 C.ar    1  UNL1        0.0013
     24 C         142.6726  134.5100  154.2780 C.ar    1  UNL1        0.0191
     25 C         142.9868  134.4887  155.7446 C.ar    1  UNL1        0.0826
     26 C         142.4687  135.5763  156.6384 C.ar    1  UNL1        0.0168
     27 N         143.8189  133.3799  156.3174 N.ar    1  UNL1       -0.2282
     28 C         144.3670  133.3190  157.7124 C.ar    1  UNL1        0.1020
     29 C         145.1359  132.0388  157.8528 C.ar    1  UNL1        0.0431
     30 C         145.0631  131.3085  156.5446 C.ar    1  UNL1        0.1221
     31 N         144.2492  132.1373  155.5957 N.ar    1  UNL1       -0.1635
@<TRIPOS>BOND
     1    18    19    1
     2    19     6    1
     3     6     7   ar
     4     7     8   ar
     5     8     1    1
     6     1     2   ar
     7     2     3   ar
     8     3    20    1
     9    20    21    1
    10    21    22   ar
    11    22    23   ar
    12    23    24   ar
    13    24    25   ar
    14    25    27    1
    15    27    28   ar
    16    28    29   ar
    17    29    30   ar
    18    30    31   ar
    19    25    26   ar
    20     3     4   ar
    21     4     5   ar
    22     8     9   ar
    23     9    10   ar
    24    10    11   ar
    25    11    12    1
    26    12    13   ar
    27    13    14   ar
    28    14    15   ar
    29    15    16    1
    30    15    17   ar
    31    11     6   ar
    32    17    12   ar
    33     5     1   ar
    34    26    21   ar
    35    31    27   ar
@<TRIPOS>MOLECULE
*****
 31 35 0 0 0
SMALL
GASTEIGER

@<TRIPOS>ATOM
      1 C         138.7299  141.8269  159.9206 C.ar    1  UNL1        0.1233
      2 C         138.6011  140.9262  158.7281 C.ar    1  UNL1        0.1179
      3 N         138.6318  141.7812  157.4960 N.ar    1  UNL1       -0.2257
      4 N         138.7796  143.2103  157.9270 N.ar    1  UNL1       -0.0635
      5 N         138.8403  143.2385  159.4255 N.ar    1  UNL1       -0.1287
      6 C         139.7688  139.9494  163.2591 C.ar    1  UNL1        0.1547
      7 C         139.7531  140.3840  161.8236 C.ar    1  UNL1        0.0400
      8 C         138.7456  141.3923  161.3562 C.ar    1  UNL1        0.0241
      9 C         137.7539  141.9659  162.3244 C.ar    1  UNL1        0.0033
     10 C         137.7696  141.5313  163.7599 C.ar    1  UNL1        0.0207
     11 C         138.7771  140.5230  164.2273 C.ar    1  UNL1        0.0994
     12 N         138.7928  140.0884  165.6629 N.ar    1  UNL1       -0.2839
     13 C         137.9539  138.9997  166.2638 C.ar    1  UNL1        0.1826
     14 N         138.2928  138.9047  167.7219 N.ar    1  UNL1       -0.2280
     15 C         139.3412  139.9346  168.0222 C.ar    1  UNL1        0.0786
     16 C         139.9702  140.1884  169.3601 C.3     1  UNL1        0.0538
     17 C         139.6502  140.6662  166.7497 C.ar    1  UNL1        0.0963
     18 C         140.5123  137.4761  163.5421 C.3     1  UNL1        0.2525
     19 O         140.7763  138.9411  163.7265 O.3     1  UNL1       -0.4700
     20 C         138.5322  141.2928  156.0812 C.3     1  UNL1        0.1556
     21 C         137.1932  141.2030  155.4113 C.ar    1  UNL1        0.0037
     22 C         137.0411  141.6243  153.9796 C.ar    1  UNL1       -0.0022
     23 C         135.7020  141.5345  153.3096 C.ar    1  UNL1        0.0013
     24 C         134.5151  141.0235  154.0712 C.ar    1  UNL1        0.0191
     25 C         134.6672  140.6022  155.5028 C.ar    1  UNL1        0.0826
     26 C         136.0063  140.6920  156.1727 C.ar    1  UNL1        0.0168
     27 N         133.4803  140.0911  156.2644 N.ar    1  UNL1       -0.2282
     28 C         132.0964  140.6691  156.2321 C.ar    1  UNL1        0.1020
     29 C         131.2297  139.8475  157.1397 C.ar    1  UNL1        0.0431
     30 C         132.0778  138.7618  157.7329 C.ar    1  UNL1        0.1221
     31 N         133.4687  138.9123  157.1919 N.ar    1  UNL1       -0.1635
@<TRIPOS>BOND
     1    18    19    1
     2    19     6    1
     3     6     7   ar
     4     7     8   ar
     5     8     1    1
     6     1     2   ar
     7     2     3   ar
     8     3    20    1
     9    20    21    1
    10    21    22   ar
    11    22    23   ar
    12    23    24   ar
    13    24    25   ar
    14    25    27    1
    15    27    28   ar
    16    28    29   ar
    17    29    30   ar
    18    30    31   ar
    19    25    26   ar
    20     3     4   ar
    21     4     5   ar
    22     8     9   ar
    23     9    10   ar
    24    10    11   ar
    25    11    12    1
    26    12    13   ar
    27    13    14   ar
    28    14    15   ar
    29    15    16    1
    30    15    17   ar
    31    11     6   ar
    32    17    12   ar
    33     5     1   ar
    34    26    21   ar
    35    31    27   ar
@<TRIPOS>MOLECULE
*****
 31 35 0 0 0
SMALL
GASTEIGER

@<TRIPOS>ATOM
      1 C         142.8769  139.0334  158.8108 C.ar    1  UNL1        0.1233
      2 C         142.5161  138.2626  157.5757 C.ar    1  UNL1        0.1179
      3 N         143.5034  138.6167  156.5034 N.ar    1  UNL1       -0.2257
      4 N         144.4744  139.6064  157.0758 N.ar    1  UNL1       -0.0635
      5 N         144.0872  139.8639  158.5019 N.ar    1  UNL1       -0.1287
      6 C         140.2543  139.8287  161.6812 C.ar    1  UNL1        0.1547
      7 C         140.9769  139.8795  160.3678 C.ar    1  UNL1        0.0400
      8 C         142.1543  138.9826  160.1244 C.ar    1  UNL1        0.0241
      9 C         142.6091  138.0349  161.1944 C.ar    1  UNL1        0.0033
     10 C         141.8865  137.9842  162.5079 C.ar    1  UNL1        0.0207
     11 C         140.7091  138.8811  162.7513 C.ar    1  UNL1        0.0994
     12 N         139.9865  138.8303  164.0648 N.ar    1  UNL1       -0.2839
     13 C         138.8042  137.9655  164.3879 C.ar    1  UNL1        0.1826
     14 N         138.4064  138.2361  165.8086 N.ar    1  UNL1       -0.2280
     15 C         139.3427  139.2682  166.3636 C.ar    1  UNL1        0.0786
     16 C         139.3085  139.8338  167.7525 C.3     1  UNL1        0.0538
     17 C         140.3193  139.6354  165.2859 C.ar    1  UNL1        0.0963
     18 C         137.7150  140.3233  161.4415 C.3     1  UNL1        0.2525
     19 O         139.0768  140.7256  161.9246 O.3     1  UNL1       -0.4700
     20 C         143.5173  138.0761  155.1042 C.3     1  UNL1        0.1556
     21 C         143.1228  136.6520  154.8465 C.ar    1  UNL1        0.0037
     22 C         142.0836  136.3372  153.8115 C.ar    1  UNL1       -0.0022
     23 C         141.6892  134.9131  153.5537 C.ar    1  UNL1        0.0013
     24 C         142.3339  133.8039  154.3309 C.ar    1  UNL1        0.0191
     25 C         143.3730  134.1187  155.3658 C.ar    1  UNL1        0.0826
     26 C         143.7674  135.5428  155.6236 C.ar    1  UNL1        0.0168
     27 N         144.0177  133.0095  156.1430 N.ar    1  UNL1       -0.2282
     28 C         144.5158  133.0962  157.5553 C.ar    1  UNL1        0.1020
     29 C         145.0834  131.7591  157.9294 C.ar    1  UNL1        0.0431
     30 C         144.9361  130.8460  156.7484 C.ar    1  UNL1        0.1221
     31 N         144.2774  131.6188  155.6444 N.ar    1  UNL1       -0.1635
@<TRIPOS>BOND
     1    18    19    1
     2    19     6    1
     3     6     7   ar
     4     7     8   ar
     5     8     1    1
     6     1     2   ar
     7     2     3   ar
     8     3    20    1
     9    20    21    1
    10    21    22   ar
    11    22    23   ar
    12    23    24   ar
    13    24    25   ar
    14    25    27    1
    15    27    28   ar
    16    28    29   ar
    17    29    30   ar
    18    30    31   ar
    19    25    26   ar
    20     3     4   ar
    21     4     5   ar
    22     8     9   ar
    23     9    10   ar
    24    10    11   ar
    25    11    12    1
    26    12    13   ar
    27    13    14   ar
    28    14    15   ar
    29    15    16    1
    30    15    17   ar
    31    11     6   ar
    32    17    12   ar
    33     5     1   ar
    34    26    21   ar
    35    31    27   ar
@<TRIPOS>MOLECULE
*****
 31 35 0 0 0
SMALL
GASTEIGER

@<TRIPOS>ATOM
      1 C         142.9766  139.4033  158.6305 C.ar    1  UNL1        0.1233
      2 C         142.6517  138.5118  157.4688 C.ar    1  UNL1        0.1179
      3 N         143.6762  138.7517  156.3997 N.ar    1  UNL1       -0.2257
      4 N         144.6343  139.7915  156.9007 N.ar    1  UNL1       -0.0635
      5 N         144.2019  140.1942  158.2794 N.ar    1  UNL1       -0.1287
      6 C         142.0065  138.9629  162.4535 C.ar    1  UNL1        0.1547
      7 C         142.7723  138.8773  161.1666 C.ar    1  UNL1        0.0400
      8 C         142.2107  139.4890  159.9174 C.ar    1  UNL1        0.0241
      9 C         140.8832  140.1863  159.9552 C.ar    1  UNL1        0.0033
     10 C         140.1174  140.2720  161.2420 C.ar    1  UNL1        0.0207
     11 C         140.6790  139.6603  162.4912 C.ar    1  UNL1        0.0994
     12 N         139.9131  139.7459  163.7781 N.ar    1  UNL1       -0.2839
     13 C         139.7059  140.9834  164.6002 C.ar    1  UNL1        0.1826
     14 N         138.8847  140.6114  165.7990 N.ar    1  UNL1       -0.2280
     15 C         138.5843  139.1440  165.7179 C.ar    1  UNL1        0.0786
     16 C         137.7881  138.3507  166.7113 C.3     1  UNL1        0.0538
     17 C         139.2199  138.6091  164.4689 C.ar    1  UNL1        0.0963
     18 C         143.3370  139.1986  164.6725 C.3     1  UNL1        0.2525
     19 O         142.5681  138.3512  163.7026 O.3     1  UNL1       -0.4700
     20 C         143.7327  138.0712  155.0641 C.3     1  UNL1        0.1556
     21 C         143.2136  136.6721  154.9126 C.ar    1  UNL1        0.0037
     22 C         142.0244  136.4039  154.0385 C.ar    1  UNL1       -0.0022
     23 C         141.5053  135.0047  153.8870 C.ar    1  UNL1        0.0013
     24 C         142.1753  133.8738  154.6096 C.ar    1  UNL1        0.0191
     25 C         143.3645  134.1420  155.4837 C.ar    1  UNL1        0.0826
     26 C         143.8835  135.5412  155.6351 C.ar    1  UNL1        0.0168
     27 N         144.0345  133.0111  156.2063 N.ar    1  UNL1       -0.2282
     28 C         144.3371  131.6569  155.6365 C.ar    1  UNL1        0.1020
     29 C         145.0092  130.8447  156.7036 C.ar    1  UNL1        0.0431
     30 C         145.1219  131.6970  157.9328 C.ar    1  UNL1        0.1221
     31 N         144.5195  133.0358  157.6255 N.ar    1  UNL1       -0.1635
@<TRIPOS>BOND
     1    18    19    1
     2    19     6    1
     3     6     7   ar
     4     7     8   ar
     5     8     1    1
     6     1     2   ar
     7     2     3   ar
     8     3    20    1
     9    20    21    1
    10    21    22   ar
    11    22    23   ar
    12    23    24   ar
    13    24    25   ar
    14    25    27    1
    15    27    28   ar
    16    28    29   ar
    17    29    30   ar
    18    30    31   ar
    19    25    26   ar
    20     3     4   ar
    21     4     5   ar
    22     8     9   ar
    23     9    10   ar
    24    10    11   ar
    25    11    12    1
    26    12    13   ar
    27    13    14   ar
    28    14    15   ar
    29    15    16    1
    30    15    17   ar
    31    11     6   ar
    32    17    12   ar
    33     5     1   ar
    34    26    21   ar
    35    31    27   ar
@<TRIPOS>MOLECULE
*****
 31 35 0 0 0
SMALL
GASTEIGER

@<TRIPOS>ATOM
      1 C         141.0042  139.4558  161.1006 C.ar    1  UNL1        0.1233
      2 C         142.0758  139.3898  160.0531 C.ar    1  UNL1        0.1179
      3 N         141.4895  138.7498  158.8298 N.ar    1  UNL1       -0.2257
      4 N         140.0554  138.4201  159.1212 N.ar    1  UNL1       -0.0635
      5 N         139.7555  138.8565  160.5246 N.ar    1  UNL1       -0.1287
      6 C         140.9336  142.0155  164.1326 C.ar    1  UNL1        0.1547
      7 C         140.7830  141.4496  162.7516 C.ar    1  UNL1        0.0400
      8 C         141.1548  140.0217  162.4816 C.ar    1  UNL1        0.0241
      9 C         141.6770  139.1597  163.5925 C.ar    1  UNL1        0.0033
     10 C         141.8276  139.7256  164.9735 C.ar    1  UNL1        0.0207
     11 C         141.4558  141.1535  165.2435 C.ar    1  UNL1        0.0994
     12 N         141.6064  141.7194  166.6245 N.ar    1  UNL1       -0.2839
     13 C         142.8923  141.8619  167.3836 C.ar    1  UNL1        0.1826
     14 N         142.5781  142.4727  168.7171 N.ar    1  UNL1       -0.2280
     15 C         141.0980  142.7077  168.7822 C.ar    1  UNL1        0.0786
     16 C         140.3498  143.3037  169.9376 C.3     1  UNL1        0.0538
     17 C         140.4975  142.2422  167.4889 C.ar    1  UNL1        0.0963
     18 C         139.1179  143.8473  164.4450 C.3     1  UNL1        0.2525
     19 O         140.5618  143.4434  164.4026 O.3     1  UNL1       -0.4700
     20 C         142.2106  138.4857  157.5412 C.3     1  UNL1        0.1556
     21 C         142.0479  137.1657  156.8476 C.ar    1  UNL1        0.0037
     22 C         140.9485  136.9758  155.8448 C.ar    1  UNL1       -0.0022
     23 C         140.7859  135.6558  155.1512 C.ar    1  UNL1        0.0013
     24 C         141.7225  134.5257  155.4603 C.ar    1  UNL1        0.0191
     25 C         142.8218  134.7156  156.4631 C.ar    1  UNL1        0.0826
     26 C         142.9844  136.0356  157.1567 C.ar    1  UNL1        0.0168
     27 N         143.7584  133.5854  156.7722 N.ar    1  UNL1       -0.2282
     28 C         144.1220  132.4631  155.8457 C.ar    1  UNL1        0.1020
     29 C         145.0842  131.5633  156.5630 C.ar    1  UNL1        0.0431
     30 C         145.3153  132.1294  157.9327 C.ar    1  UNL1        0.1221
     31 N         144.4959  133.3792  158.0620 N.ar    1  UNL1       -0.1635
@<TRIPOS>BOND
     1    18    19    1
     2    19     6    1
     3     6     7   ar
     4     7     8   ar
     5     8     1    1
     6     1     2   ar
     7     2     3   ar
     8     3    20    1
     9    20    21    1
    10    21    22   ar
    11    22    23   ar
    12    23    24   ar
    13    24    25   ar
    14    25    27    1
    15    27    28   ar
    16    28    29   ar
    17    29    30   ar
    18    30    31   ar
    19    25    26   ar
    20     3     4   ar
    21     4     5   ar
    22     8     9   ar
    23     9    10   ar
    24    10    11   ar
    25    11    12    1
    26    12    13   ar
    27    13    14   ar
    28    14    15   ar
    29    15    16    1
    30    15    17   ar
    31    11     6   ar
    32    17    12   ar
    33     5     1   ar
    34    26    21   ar
    35    31    27   ar
