@<TRIPOS>MOLECULE
*****
 29 31 0 0 0
SMALL
GASTEIGER

@<TRIPOS>ATOM
      1 N         140.8775  144.4006  158.3326 N.am    1  UNL1       -0.2681
      2 C         140.7028  144.9054  159.7343 C.2     1  UNL1        0.3077
      3 O         139.6138  145.8884  160.0471 O.2     1  UNL1       -0.2522
      4 N         141.6171  144.4273  160.8231 N.am    1  UNL1       -0.2637
      5 C         141.4424  144.9321  162.2247 C.3     1  UNL1        0.0987
      6 C         142.3567  144.4540  163.3134 C.3     1  UNL1        0.0651
      7 C         143.4457  143.4710  163.0005 C.3     1  UNL1        0.1694
      8 C         143.6204  142.9662  161.5989 C.3     1  UNL1        0.0651
      9 C         142.7061  143.4443  160.5102 C.3     1  UNL1        0.0987
     10 H         141.5922  143.7554  158.1273 H       1  UNL1        0.1564
     11 C         139.0598  146.8001  155.7464 C.ar    1  UNL1        0.0546
     12 C         138.1346  145.8350  155.0663 C.ar    1  UNL1        0.0046
     13 C         138.1236  144.3918  155.4749 C.ar    1  UNL1        0.0014
     14 C         139.0379  143.9136  156.5637 C.ar    1  UNL1        0.0147
     15 C         139.9631  144.8787  157.2438 C.ar    1  UNL1        0.0517
     16 C         139.9740  146.3219  156.8352 C.ar    1  UNL1        0.0192
     17 C         138.5350  150.7323  155.8551 C.3     1  UNL1        0.1109
     18 N         138.5241  149.2891  156.2637 N.am    1  UNL1       -0.2992
     19 C         139.0707  148.2433  155.3378 C.2     1  UNL1        0.2459
     20 O         139.6282  148.6407  154.0031 O.2     1  UNL1       -0.2701
     21 H         138.1582  149.0283  157.1397 H       1  UNL1        0.1498
     22 O         144.3601  142.9929  164.0894 O.3     1  UNL1       -0.4782
     23 C         144.2344  141.5931  164.6135 C.ar    1  UNL1        0.1488
     24 C         145.1004  140.5028  164.0556 C.ar    1  UNL1        0.0378
     25 C         144.9747  139.1030  164.5797 C.ar    1  UNL1        0.0032
     26 C         143.9830  138.7935  165.6618 C.ar    1  UNL1        0.0011
     27 C         143.1170  139.8838  166.2196 C.ar    1  UNL1        0.0145
     28 C         143.2427  141.2837  165.6955 C.ar    1  UNL1        0.0915
     29 CL        142.3767  142.3740  166.2534 Cl      1  UNL1       -0.0791
@<TRIPOS>BOND
     1    17    18    1
     2    18    19   am
     3    19    20    2
     4    19    11    1
     5    11    12   ar
     6    12    13   ar
     7    13    14   ar
     8    14    15   ar
     9    15     1    1
    10     1     2   am
    11     2     3    2
    12     2     4   am
    13     4     5    1
    14     5     6    1
    15     6     7    1
    16     7    22    1
    17    22    23    1
    18    23    24   ar
    19    24    25   ar
    20    25    26   ar
    21    26    27   ar
    22    27    28   ar
    23    28    29    1
    24     7     8    1
    25     8     9    1
    26    15    16   ar
    27    16    11   ar
    28     9     4    1
    29    28    23   ar
    30    18    21    1
    31     1    10    1
@<TRIPOS>MOLECULE
*****
 29 31 0 0 0
SMALL
GASTEIGER

@<TRIPOS>ATOM
      1 N         140.1221  141.3723  164.4490 N.am    1  UNL1       -0.2681
      2 C         139.4634  142.6181  163.9352 C.2     1  UNL1        0.3077
      3 O         138.1994  143.1153  164.5718 O.2     1  UNL1       -0.2522
      4 N         140.0686  143.3667  162.7848 N.am    1  UNL1       -0.2637
      5 C         139.4098  144.6125  162.2710 C.3     1  UNL1        0.0987
      6 C         140.0150  145.3610  161.1206 C.3     1  UNL1        0.0651
      7 C         141.2789  144.8638  160.4841 C.3     1  UNL1        0.1694
      8 C         141.9377  143.6180  160.9979 C.3     1  UNL1        0.0651
      9 C         141.3325  142.8695  162.1482 C.3     1  UNL1        0.0987
     10 H         140.9517  141.0460  164.0312 H       1  UNL1        0.1564
     11 C         139.4015  140.1220  168.1460 C.ar    1  UNL1        0.0546
     12 C         138.3067  139.1266  167.9002 C.ar    1  UNL1        0.0046
     13 C         137.8171  138.8796  166.5041 C.ar    1  UNL1        0.0014
     14 C         138.4222  139.6282  165.3537 C.ar    1  UNL1        0.0147
     15 C         139.5170  140.6237  165.5995 C.ar    1  UNL1        0.0517
     16 C         140.0066  140.8706  166.9956 C.ar    1  UNL1        0.0192
     17 C         141.6611  141.3645  171.1627 C.3     1  UNL1        0.1109
     18 N         141.1714  141.1176  169.7665 N.am    1  UNL1       -0.2992
     19 C         139.8912  140.3689  169.5422 C.2     1  UNL1        0.2459
     20 O         139.1006  139.8671  170.7140 O.2     1  UNL1       -0.2701
     21 H         141.6903  141.4470  168.9974 H       1  UNL1        0.1498
     22 O         141.8841  145.6124  159.3336 O.3     1  UNL1       -0.4782
     23 C         141.3668  145.3955  157.9425 C.ar    1  UNL1        0.1488
     24 C         140.2143  146.2107  157.4353 C.ar    1  UNL1        0.0378
     25 C         139.6970  145.9938  156.0442 C.ar    1  UNL1        0.0032
     26 C         140.3322  144.9618  155.1601 C.ar    1  UNL1        0.0011
     27 C         141.4848  144.1467  155.6673 C.ar    1  UNL1        0.0145
     28 C         142.0021  144.3636  157.0585 C.ar    1  UNL1        0.0915
     29 CL        143.1546  143.5485  157.5657 Cl      1  UNL1       -0.0791
@<TRIPOS>BOND
     1    17    18    1
     2    18    19   am
     3    19    20    2
     4    19    11    1
     5    11    12   ar
     6    12    13   ar
     7    13    14   ar
     8    14    15   ar
     9    15     1    1
    10     1     2   am
    11     2     3    2
    12     2     4   am
    13     4     5    1
    14     5     6    1
    15     6     7    1
    16     7    22    1
    17    22    23    1
    18    23    24   ar
    19    24    25   ar
    20    25    26   ar
    21    26    27   ar
    22    27    28   ar
    23    28    29    1
    24     7     8    1
    25     8     9    1
    26    15    16   ar
    27    16    11   ar
    28     9     4    1
    29    28    23   ar
    30    18    21    1
    31     1    10    1
@<TRIPOS>MOLECULE
*****
 29 31 0 0 0
SMALL
GASTEIGER

@<TRIPOS>ATOM
      1 N         142.0534  138.1666  158.8382 N.am    1  UNL1       -0.2681
      2 C         140.5745  138.3998  158.9298 C.2     1  UNL1        0.3077
      3 O         139.6710  137.9261  157.8301 O.2     1  UNL1       -0.2522
      4 N         139.9990  139.1067  160.1211 N.am    1  UNL1       -0.2637
      5 C         138.5201  139.3399  160.2127 C.3     1  UNL1        0.0987
      6 C         137.9447  140.0467  161.4040 C.3     1  UNL1        0.0651
      7 C         138.8482  140.5205  162.5037 C.3     1  UNL1        0.1694
      8 C         140.3271  140.2873  162.4121 C.3     1  UNL1        0.0651
      9 C         140.9025  139.5804  161.2208 C.3     1  UNL1        0.0987
     10 H         142.6464  138.4775  159.5600 H       1  UNL1        0.1564
     11 C         143.3357  135.2585  156.4614 C.ar    1  UNL1        0.0546
     12 C         143.7797  136.0458  155.2644 C.ar    1  UNL1        0.0046
     13 C         143.6483  137.5400  155.2586 C.ar    1  UNL1        0.0014
     14 C         143.0729  138.2470  156.4498 C.ar    1  UNL1        0.0147
     15 C         142.6289  137.4597  157.6469 C.ar    1  UNL1        0.0517
     16 C         142.7603  135.9655  157.6527 C.ar    1  UNL1        0.0192
     17 C         144.9580  131.6367  156.4499 C.3     1  UNL1        0.1109
     18 N         144.8266  133.1309  156.4441 N.am    1  UNL1       -0.2992
     19 C         143.4671  133.7643  156.4673 C.2     1  UNL1        0.2459
     20 O         142.2391  132.9035  156.4962 O.2     1  UNL1       -0.2701
     21 H         145.6326  133.6958  156.4251 H       1  UNL1        0.1498
     22 O         138.2728  141.2274  163.6950 O.3     1  UNL1       -0.4782
     23 C         138.6687  140.8078  165.0796 C.ar    1  UNL1        0.1488
     24 C         138.1182  139.5417  165.6659 C.ar    1  UNL1        0.0378
     25 C         138.5141  139.1221  167.0505 C.ar    1  UNL1        0.0032
     26 C         139.4607  139.9687  167.8489 C.ar    1  UNL1        0.0011
     27 C         140.0113  141.2349  167.2626 C.ar    1  UNL1        0.0145
     28 C         139.6153  141.6544  165.8779 C.ar    1  UNL1        0.0915
     29 CL        140.1658  142.9206  165.2916 Cl      1  UNL1       -0.0791
@<TRIPOS>BOND
     1    17    18    1
     2    18    19   am
     3    19    20    2
     4    19    11    1
     5    11    12   ar
     6    12    13   ar
     7    13    14   ar
     8    14    15   ar
     9    15     1    1
    10     1     2   am
    11     2     3    2
    12     2     4   am
    13     4     5    1
    14     5     6    1
    15     6     7    1
    16     7    22    1
    17    22    23    1
    18    23    24   ar
    19    24    25   ar
    20    25    26   ar
    21    26    27   ar
    22    27    28   ar
    23    28    29    1
    24     7     8    1
    25     8     9    1
    26    15    16   ar
    27    16    11   ar
    28     9     4    1
    29    28    23   ar
    30    18    21    1
    31     1    10    1
@<TRIPOS>MOLECULE
*****
 29 31 0 0 0
SMALL
GASTEIGER

@<TRIPOS>ATOM
      1 N         141.8253  138.1567  158.6147 N.am    1  UNL1       -0.2681
      2 C         142.5554  138.8296  159.7389 C.2     1  UNL1        0.3077
      3 O         144.0545  138.8015  159.7829 O.2     1  UNL1       -0.2522
      4 N         141.7865  139.5308  160.8193 N.am    1  UNL1       -0.2637
      5 C         142.5166  140.2038  161.9436 C.3     1  UNL1        0.0987
      6 C         141.7476  140.9049  163.0238 C.3     1  UNL1        0.0651
      7 C         140.2485  140.9331  162.9799 C.3     1  UNL1        0.1694
      8 C         139.5184  140.2601  161.8556 C.3     1  UNL1        0.0651
      9 C         140.2874  139.5590  160.7754 C.3     1  UNL1        0.0987
     10 H         140.8414  138.1752  158.5859 H       1  UNL1        0.1564
     11 C         143.4462  135.2566  156.4438 C.ar    1  UNL1        0.0546
     12 C         144.1321  136.0531  155.3738 C.ar    1  UNL1        0.0046
     13 C         144.0491  137.5508  155.3840 C.ar    1  UNL1        0.0014
     14 C         143.2802  138.2520  156.4643 C.ar    1  UNL1        0.0147
     15 C         142.5943  137.4555  157.5343 C.ar    1  UNL1        0.0517
     16 C         142.6772  135.9578  157.5241 C.ar    1  UNL1        0.0192
     17 C         144.9444  131.5849  156.2913 C.3     1  UNL1        0.1109
     18 N         144.8614  133.0825  156.3015 N.am    1  UNL1       -0.2992
     19 C         143.5291  133.7590  156.4336 C.2     1  UNL1        0.2459
     20 O         142.2799  132.9377  156.5555 O.2     1  UNL1       -0.2701
     21 H         145.6813  133.6215  156.2215 H       1  UNL1        0.1498
     22 O         139.4796  141.6342  164.0603 O.3     1  UNL1       -0.4782
     23 C         139.3303  140.9961  165.4095 C.ar    1  UNL1        0.1488
     24 C         138.4597  139.7858  165.5745 C.ar    1  UNL1        0.0378
     25 C         138.3104  139.1476  166.9237 C.ar    1  UNL1        0.0032
     26 C         139.0316  139.7198  168.1080 C.ar    1  UNL1        0.0011
     27 C         139.9022  140.9302  167.9430 C.ar    1  UNL1        0.0145
     28 C         140.0515  141.5683  166.5937 C.ar    1  UNL1        0.0915
     29 CL        140.9220  142.7787  166.4287 Cl      1  UNL1       -0.0791
@<TRIPOS>BOND
     1    17    18    1
     2    18    19   am
     3    19    20    2
     4    19    11    1
     5    11    12   ar
     6    12    13   ar
     7    13    14   ar
     8    14    15   ar
     9    15     1    1
    10     1     2   am
    11     2     3    2
    12     2     4   am
    13     4     5    1
    14     5     6    1
    15     6     7    1
    16     7    22    1
    17    22    23    1
    18    23    24   ar
    19    24    25   ar
    20    25    26   ar
    21    26    27   ar
    22    27    28   ar
    23    28    29    1
    24     7     8    1
    25     8     9    1
    26    15    16   ar
    27    16    11   ar
    28     9     4    1
    29    28    23   ar
    30    18    21    1
    31     1    10    1
@<TRIPOS>MOLECULE
*****
 29 31 0 0 0
SMALL
GASTEIGER

@<TRIPOS>ATOM
      1 N         139.5573  140.5399  161.7256 N.am    1  UNL1       -0.2681
      2 C         138.7354  139.7250  162.6797 C.2     1  UNL1        0.3077
      3 O         137.6466  138.8338  162.1597 O.2     1  UNL1       -0.2522
      4 N         139.0023  139.8011  164.1539 N.am    1  UNL1       -0.2637
      5 C         138.1805  138.9862  165.1079 C.3     1  UNL1        0.0987
      6 C         138.4474  139.0624  166.5820 C.3     1  UNL1        0.0651
      7 C         139.5362  139.9535  167.1020 C.3     1  UNL1        0.1694
      8 C         140.3581  140.7685  166.1479 C.3     1  UNL1        0.0651
      9 C         140.0912  140.6923  164.6738 C.3     1  UNL1        0.0987
     10 H         140.2719  141.1248  162.0669 H       1  UNL1        0.1564
     11 C         139.4967  139.2019  157.9898 C.ar    1  UNL1        0.0546
     12 C         138.7566  140.3114  157.3033 C.ar    1  UNL1        0.0046
     13 C         138.2834  141.4970  158.0909 C.ar    1  UNL1        0.0014
     14 C         138.5503  141.5732  159.5650 C.ar    1  UNL1        0.0147
     15 C         139.2903  140.4638  160.2515 C.ar    1  UNL1        0.0517
     16 C         139.7635  139.2781  159.4639 C.ar    1  UNL1        0.0192
     17 C         141.8816  136.4112  156.4820 C.3     1  UNL1        0.1109
     18 N         141.4084  137.5968  157.2696 N.am    1  UNL1       -0.2992
     19 C         139.9699  138.0163  157.2022 C.2     1  UNL1        0.2459
     20 O         139.0045  137.2500  156.3473 O.2     1  UNL1       -0.2701
     21 H         142.0420  138.0997  157.8307 H       1  UNL1        0.1498
     22 O         139.8032  140.0297  168.5761 O.3     1  UNL1       -0.4782
     23 C         140.8251  140.9921  169.1045 C.ar    1  UNL1        0.1488
     24 C         140.4283  142.4001  169.4364 C.ar    1  UNL1        0.0378
     25 C         141.4502  143.3626  169.9648 C.ar    1  UNL1        0.0032
     26 C         142.8690  142.9171  170.1614 C.ar    1  UNL1        0.0011
     27 C         143.2658  141.5092  169.8295 C.ar    1  UNL1        0.0145
     28 C         142.2438  140.5467  169.3010 C.ar    1  UNL1        0.0915
     29 CL        142.6407  139.1387  168.9691 Cl      1  UNL1       -0.0791
@<TRIPOS>BOND
     1    17    18    1
     2    18    19   am
     3    19    20    2
     4    19    11    1
     5    11    12   ar
     6    12    13   ar
     7    13    14   ar
     8    14    15   ar
     9    15     1    1
    10     1     2   am
    11     2     3    2
    12     2     4   am
    13     4     5    1
    14     5     6    1
    15     6     7    1
    16     7    22    1
    17    22    23    1
    18    23    24   ar
    19    24    25   ar
    20    25    26   ar
    21    26    27   ar
    22    27    28   ar
    23    28    29    1
    24     7     8    1
    25     8     9    1
    26    15    16   ar
    27    16    11   ar
    28     9     4    1
    29    28    23   ar
    30    18    21    1
    31     1    10    1
@<TRIPOS>MOLECULE
*****
 29 31 0 0 0
SMALL
GASTEIGER

@<TRIPOS>ATOM
      1 N         139.6497  140.2815  161.6838 N.am    1  UNL1       -0.2681
      2 C         139.0242  139.3224  162.6527 C.2     1  UNL1        0.3077
      3 O         138.2716  138.1281  162.1456 O.2     1  UNL1       -0.2522
      4 N         139.1513  139.5576  164.1287 N.am    1  UNL1       -0.2637
      5 C         138.5257  138.5985  165.0976 C.3     1  UNL1        0.0987
      6 C         138.6528  138.8337  166.5735 C.3     1  UNL1        0.0651
      7 C         139.4054  140.0281  167.0806 C.3     1  UNL1        0.1694
      8 C         140.0310  140.9872  166.1117 C.3     1  UNL1        0.0651
      9 C         139.9039  140.7520  164.6358 C.3     1  UNL1        0.0987
     10 H         140.1437  141.0654  162.0166 H       1  UNL1        0.1564
     11 C         138.3196  140.5064  157.9515 C.ar    1  UNL1        0.0546
     12 C         139.2685  139.5760  157.2558 C.ar    1  UNL1        0.0046
     13 C         140.3445  138.8808  158.0362 C.ar    1  UNL1        0.0014
     14 C         140.4716  139.1160  159.5121 C.ar    1  UNL1        0.0147
     15 C         139.5227  140.0463  160.2077 C.ar    1  UNL1        0.0517
     16 C         138.4467  140.7416  159.4274 C.ar    1  UNL1        0.0192
     17 C         135.0673  141.0995  155.7559 C.3     1  UNL1        0.1109
     18 N         136.1433  140.4042  156.5362 N.am    1  UNL1       -0.2992
     19 C         137.2437  141.2017  157.1711 C.2     1  UNL1        0.2459
     20 O         137.2681  142.6944  157.0257 O.2     1  UNL1       -0.2701
     21 H         136.1272  139.4245  156.6317 H       1  UNL1        0.1498
     22 O         139.5325  140.2633  168.5566 O.3     1  UNL1       -0.4782
     23 C         140.6050  141.1708  169.0819 C.ar    1  UNL1        0.1488
     24 C         140.2756  142.5874  169.4487 C.ar    1  UNL1        0.0378
     25 C         141.3482  143.4950  169.9739 C.ar    1  UNL1        0.0032
     26 C         142.7503  142.9858  170.1324 C.ar    1  UNL1        0.0011
     27 C         143.0797  141.5692  169.7657 C.ar    1  UNL1        0.0145
     28 C         142.0070  140.6616  169.2404 C.ar    1  UNL1        0.0915
     29 CL        142.3364  139.2450  168.8736 Cl      1  UNL1       -0.0791
@<TRIPOS>BOND
     1    17    18    1
     2    18    19   am
     3    19    20    2
     4    19    11    1
     5    11    12   ar
     6    12    13   ar
     7    13    14   ar
     8    14    15   ar
     9    15     1    1
    10     1     2   am
    11     2     3    2
    12     2     4   am
    13     4     5    1
    14     5     6    1
    15     6     7    1
    16     7    22    1
    17    22    23    1
    18    23    24   ar
    19    24    25   ar
    20    25    26   ar
    21    26    27   ar
    22    27    28   ar
    23    28    29    1
    24     7     8    1
    25     8     9    1
    26    15    16   ar
    27    16    11   ar
    28     9     4    1
    29    28    23   ar
    30    18    21    1
    31     1    10    1
@<TRIPOS>MOLECULE
*****
 29 31 0 0 0
SMALL
GASTEIGER

@<TRIPOS>ATOM
      1 N         140.6999  138.4141  163.8018 N.am    1  UNL1       -0.2681
      2 C         140.1044  138.7039  162.4559 C.2     1  UNL1        0.3077
      3 O         138.7287  139.2932  162.3556 O.2     1  UNL1       -0.2522
      4 N         140.8847  138.4044  161.2103 N.am    1  UNL1       -0.2637
      5 C         140.2892  138.6943  159.8644 C.3     1  UNL1        0.0987
      6 C         141.0695  138.3948  158.6189 C.3     1  UNL1        0.0651
      7 C         142.4452  137.8055  158.7192 C.3     1  UNL1        0.1694
      8 C         143.0407  137.5156  160.0650 C.3     1  UNL1        0.0651
      9 C         142.2604  137.8151  161.3106 C.3     1  UNL1        0.0987
     10 H         141.6028  138.0273  163.8676 H       1  UNL1        0.1564
     11 C         139.5838  140.1139  167.2099 C.ar    1  UNL1        0.0546
     12 C         138.3592  139.3126  167.5386 C.ar    1  UNL1        0.0046
     13 C         137.9148  138.2117  166.6217 C.ar    1  UNL1        0.0014
     14 C         138.6950  137.9122  165.3761 C.ar    1  UNL1        0.0147
     15 C         139.9196  138.7136  165.0474 C.ar    1  UNL1        0.0517
     16 C         140.3640  139.8144  165.9643 C.ar    1  UNL1        0.0192
     17 C         140.1109  142.2717  170.4986 C.3     1  UNL1        0.1109
     18 N         139.6665  141.1709  169.5818 N.am    1  UNL1       -0.2992
     19 C         140.0283  141.2147  168.1267 C.2     1  UNL1        0.2459
     20 O         140.8345  142.3594  167.5886 O.2     1  UNL1       -0.2701
     21 H         139.1373  140.4196  169.9350 H       1  UNL1        0.1498
     22 O         143.2255  137.5060  157.4735 O.3     1  UNL1       -0.4782
     23 C         142.6522  136.5927  156.4308 C.ar    1  UNL1        0.1488
     24 C         141.9744  137.1664  155.2220 C.ar    1  UNL1        0.0378
     25 C         141.4011  136.2531  154.1793 C.ar    1  UNL1        0.0032
     26 C         141.5057  134.7659  154.3455 C.ar    1  UNL1        0.0011
     27 C         142.1836  134.1922  155.5543 C.ar    1  UNL1        0.0145
     28 C         142.7568  135.1056  156.5970 C.ar    1  UNL1        0.0915
     29 CL        143.4347  134.5319  157.8059 Cl      1  UNL1       -0.0791
@<TRIPOS>BOND
     1    17    18    1
     2    18    19   am
     3    19    20    2
     4    19    11    1
     5    11    12   ar
     6    12    13   ar
     7    13    14   ar
     8    14    15   ar
     9    15     1    1
    10     1     2   am
    11     2     3    2
    12     2     4   am
    13     4     5    1
    14     5     6    1
    15     6     7    1
    16     7    22    1
    17    22    23    1
    18    23    24   ar
    19    24    25   ar
    20    25    26   ar
    21    26    27   ar
    22    27    28   ar
    23    28    29    1
    24     7     8    1
    25     8     9    1
    26    15    16   ar
    27    16    11   ar
    28     9     4    1
    29    28    23   ar
    30    18    21    1
    31     1    10    1
@<TRIPOS>MOLECULE
*****
 29 31 0 0 0
SMALL
GASTEIGER

@<TRIPOS>ATOM
      1 N         141.6835  137.9493  158.5476 N.am    1  UNL1       -0.2681
      2 C         142.2681  138.1770  159.9101 C.2     1  UNL1        0.3077
      3 O         143.7184  137.8885  160.1617 O.2     1  UNL1       -0.2522
      4 N         141.4024  138.6933  161.0210 N.am    1  UNL1       -0.2637
      5 C         141.9870  138.9210  162.3834 C.3     1  UNL1        0.0987
      6 C         141.1213  139.4373  163.4942 C.3     1  UNL1        0.0651
      7 C         139.6710  139.7258  163.2426 C.3     1  UNL1        0.1694
      8 C         139.0864  139.4981  161.8801 C.3     1  UNL1        0.0651
      9 C         139.9521  138.9819  160.7693 C.3     1  UNL1        0.0987
     10 H         140.7316  138.1387  158.3824 H       1  UNL1        0.1564
     11 C         143.6311  135.4409  156.1676 C.ar    1  UNL1        0.0546
     12 C         144.2806  136.4004  155.2150 C.ar    1  UNL1        0.0046
     13 C         144.0643  137.8763  155.3733 C.ar    1  UNL1        0.0014
     14 C         143.1987  138.3926  156.4841 C.ar    1  UNL1        0.0147
     15 C         142.5492  137.4330  157.4367 C.ar    1  UNL1        0.0517
     16 C         142.7655  135.9572  157.2784 C.ar    1  UNL1        0.0192
     17 C         144.9195  131.7468  156.8341 C.3     1  UNL1        0.1109
     18 N         144.7032  133.2227  156.9924 N.am    1  UNL1       -0.2992
     19 C         143.8474  133.9650  156.0093 C.2     1  UNL1        0.2459
     20 O         143.2078  133.2314  154.8680 O.2     1  UNL1       -0.2701
     21 H         145.1230  133.7042  157.7415 H       1  UNL1        0.1498
     22 O         138.8052  140.2421  164.3535 O.3     1  UNL1       -0.4782
     23 C         138.7561  141.7128  164.6445 C.ar    1  UNL1        0.1488
     24 C         137.7860  142.5905  163.9108 C.ar    1  UNL1        0.0378
     25 C         137.7369  144.0612  164.2018 C.ar    1  UNL1        0.0032
     26 C         138.6580  144.6542  165.2265 C.ar    1  UNL1        0.0011
     27 C         139.6282  143.7764  165.9602 C.ar    1  UNL1        0.0145
     28 C         139.6772  142.3057  165.6692 C.ar    1  UNL1        0.0915
     29 CL        140.6474  141.4279  166.4029 Cl      1  UNL1       -0.0791
@<TRIPOS>BOND
     1    17    18    1
     2    18    19   am
     3    19    20    2
     4    19    11    1
     5    11    12   ar
     6    12    13   ar
     7    13    14   ar
     8    14    15   ar
     9    15     1    1
    10     1     2   am
    11     2     3    2
    12     2     4   am
    13     4     5    1
    14     5     6    1
    15     6     7    1
    16     7    22    1
    17    22    23    1
    18    23    24   ar
    19    24    25   ar
    20    25    26   ar
    21    26    27   ar
    22    27    28   ar
    23    28    29    1
    24     7     8    1
    25     8     9    1
    26    15    16   ar
    27    16    11   ar
    28     9     4    1
    29    28    23   ar
    30    18    21    1
    31     1    10    1
@<TRIPOS>MOLECULE
*****
 29 31 0 0 0
SMALL
GASTEIGER

@<TRIPOS>ATOM
      1 N         143.2341  138.8925  161.1373 N.am    1  UNL1       -0.2681
      2 C         142.0904  139.4578  161.9262 C.2     1  UNL1        0.3077
      3 O         140.8831  139.9955  161.2167 O.2     1  UNL1       -0.2522
      4 N         142.1541  139.4856  163.4246 N.am    1  UNL1       -0.2637
      5 C         141.0104  140.0509  164.2135 C.3     1  UNL1        0.0987
      6 C         141.0741  140.0787  165.7119 C.3     1  UNL1        0.0651
      7 C         142.2814  139.5410  166.4213 C.3     1  UNL1        0.1694
      8 C         143.4251  138.9757  165.6324 C.3     1  UNL1        0.0651
      9 C         143.3614  138.9479  164.1341 C.3     1  UNL1        0.0987
     10 H         144.0265  138.5396  161.6029 H       1  UNL1        0.1564
     11 C         142.6983  137.5804  157.4303 C.ar    1  UNL1        0.0546
     12 C         143.0431  138.8091  156.6421 C.ar    1  UNL1        0.0046
     13 C         143.4516  140.0657  157.3523 C.ar    1  UNL1        0.0014
     14 C         143.5152  140.0935  158.8506 C.ar    1  UNL1        0.0147
     15 C         143.1704  138.8647  159.6388 C.ar    1  UNL1        0.0517
     16 C         142.7620  137.6082  158.9287 C.ar    1  UNL1        0.0192
     17 C         142.5753  133.7733  156.3164 C.3     1  UNL1        0.1109
     18 N         142.9837  135.0298  157.0265 N.am    1  UNL1       -0.2992
     19 C         142.2899  136.3239  156.7201 C.2     1  UNL1        0.2459
     20 O         141.1876  136.3614  155.7036 O.2     1  UNL1       -0.2701
     21 H         143.7072  135.0052  157.6937 H       1  UNL1        0.1498
     22 O         142.3451  139.5688  167.9198 O.3     1  UNL1       -0.4782
     23 C         141.5238  140.5621  168.6871 C.ar    1  UNL1        0.1488
     24 C         140.2172  140.1451  169.2945 C.ar    1  UNL1        0.0378
     25 C         139.3959  141.1384  170.0618 C.ar    1  UNL1        0.0032
     26 C         139.8812  142.5488  170.2217 C.ar    1  UNL1        0.0011
     27 C         141.1878  142.9657  169.6143 C.ar    1  UNL1        0.0145
     28 C         142.0091  141.9723  168.8469 C.ar    1  UNL1        0.0915
     29 CL        143.3157  142.3893  168.2395 Cl      1  UNL1       -0.0791
@<TRIPOS>BOND
     1    17    18    1
     2    18    19   am
     3    19    20    2
     4    19    11    1
     5    11    12   ar
     6    12    13   ar
     7    13    14   ar
     8    14    15   ar
     9    15     1    1
    10     1     2   am
    11     2     3    2
    12     2     4   am
    13     4     5    1
    14     5     6    1
    15     6     7    1
    16     7    22    1
    17    22    23    1
    18    23    24   ar
    19    24    25   ar
    20    25    26   ar
    21    26    27   ar
    22    27    28   ar
    23    28    29    1
    24     7     8    1
    25     8     9    1
    26    15    16   ar
    27    16    11   ar
    28     9     4    1
    29    28    23   ar
    30    18    21    1
    31     1    10    1
