@<TRIPOS>MOLECULE
*****
 38 42 0 0 0
SMALL
GASTEIGER

@<TRIPOS>ATOM
      1 N         137.8751  142.9021  163.2282 N.3     1  UNL1       -0.2689
      2 C         137.8960  142.5793  161.7635 C.3     1  UNL1        0.0737
      3 C         137.9240  141.1495  161.3110 C.3     1  UNL1        0.0356
      4 C         137.9311  140.0425  162.3231 C.3     1  UNL1        0.0846
      5 C         137.9103  140.3653  163.7878 C.3     1  UNL1        0.1455
      6 C         137.8823  141.7951  164.2404 C.3     1  UNL1        0.1034
      7 N         137.9592  138.6126  161.8706 N.3     1  UNL1       -0.2915
      8 H         137.3426  138.5480  161.0606 H       1  UNL1        0.1236
      9 C         139.2591  137.9758  161.4772 C.3     1  UNL1        0.1152
     10 C         140.4857  138.1975  162.3115 C.ar    1  UNL1        0.0765
     11 C         140.6958  137.3982  163.5632 C.ar    1  UNL1        0.0193
     12 C         141.9224  137.6199  164.3977 C.ar    1  UNL1        0.0411
     13 C         142.9389  138.6409  163.9804 C.ar    1  UNL1        0.1708
     14 C         142.7287  139.4403  162.7286 C.ar    1  UNL1        0.1682
     15 N         141.5021  139.2186  161.8942 N.ar    1  UNL1       -0.2304
     16 N         143.7452  140.4614  162.3113 N.am    1  UNL1       -0.2639
     17 C         144.9719  140.6831  163.1457 C.2     1  UNL1        0.2718
     18 O         145.9884  141.7042  162.7284 O.2     1  UNL1       -0.2707
     19 C         145.1820  139.8837  164.3974 C.3     1  UNL1        0.2898
     20 O         144.1655  138.8626  164.8148 O.3     1  UNL1       -0.4628
     21 H         143.6073  140.9861  161.4897 H       1  UNL1        0.1565
     22 O         137.9174  139.2582  164.8000 O.3     1  UNL1       -0.3508
     23 C         138.6114  139.4497  166.1160 C.3     1  UNL1        0.1741
     24 C         137.8471  144.3320  163.6808 C.3     1  UNL1        0.0970
     25 C         138.9692  144.8772  164.5136 C.3     1  UNL1        0.1264
     26 C         140.9281  142.1080  167.4706 C.ar    1  UNL1        0.1403
     27 C         142.3326  141.6351  167.2387 C.ar    1  UNL1        0.0385
     28 C         143.0841  142.0852  166.0211 C.ar    1  UNL1        0.0237
     29 C         142.4312  143.0083  165.0354 C.ar    1  UNL1        0.0975
     30 N         143.1827  143.4584  163.8178 N.ar    1  UNL1       -0.2374
     31 C         142.5297  144.3815  162.8321 C.ar    1  UNL1        0.1594
     32 C         141.1252  144.8544  163.0640 C.ar    1  UNL1        0.2803
     33 O         140.4723  145.7775  162.0783 O.2     1  UNL1       -0.2653
     34 N         140.3737  144.4043  164.2816 N.ar    1  UNL1       -0.2913
     35 C         141.0267  143.4812  165.2673 C.ar    1  UNL1        0.0832
     36 C         140.2752  143.0310  166.4850 C.ar    1  UNL1        0.0557
     37 C         140.9116  141.3982  169.9698 C.3     1  UNL1        0.2525
     38 O         140.1766  141.6578  168.6883 O.3     1  UNL1       -0.4714
@<TRIPOS>BOND
     1    37    38    1
     2    38    26    1
     3    26    27   ar
     4    27    28   ar
     5    28    29   ar
     6    29    30   ar
     7    30    31   ar
     8    31    32   ar
     9    32    33    2
    10    32    34   ar
    11    34    25    1
    12    25    24    1
    13    24     1    1
    14     1     2    1
    15     2     3    1
    16     3     4    1
    17     4     7    1
    18     7     9    1
    19     9    10    1
    20    10    11   ar
    21    11    12   ar
    22    12    13   ar
    23    13    14   ar
    24    14    15   ar
    25    14    16    1
    26    16    17   am
    27    17    18    2
    28    17    19    1
    29    19    20    1
    30     4     5    1
    31     5    22    1
    32    22    23    1
    33     5     6    1
    34    34    35   ar
    35    35    36   ar
    36    36    26   ar
    37    35    29   ar
    38     6     1    1
    39    15    10   ar
    40    20    13    1
    41     7     8    1
    42    16    21    1
@<TRIPOS>MOLECULE
*****
 38 42 0 0 0
SMALL
GASTEIGER

@<TRIPOS>ATOM
      1 N         142.6745  144.2544  163.2028 N.3     1  UNL1       -0.2689
      2 C         142.5527  143.6526  161.8342 C.3     1  UNL1        0.0737
      3 C         141.1995  143.4654  161.2149 C.3     1  UNL1        0.0356
      4 C         139.9680  143.8802  161.9641 C.3     1  UNL1        0.0846
      5 C         140.0897  144.4820  163.3326 C.3     1  UNL1        0.1455
      6 C         141.4430  144.6692  163.9520 C.3     1  UNL1        0.1034
      7 N         138.6146  143.6930  161.3447 N.3     1  UNL1       -0.2915
      8 H         138.5470  144.3616  160.5773 H       1  UNL1        0.1236
      9 C         138.2222  142.3558  160.7898 C.3     1  UNL1        0.1152
     10 C         138.3941  141.1191  161.6211 C.ar    1  UNL1        0.0765
     11 C         138.8946  139.8543  160.9891 C.ar    1  UNL1        0.0193
     12 C         139.0665  138.6175  161.8203 C.ar    1  UNL1        0.0411
     13 C         138.7378  138.6457  163.2836 C.ar    1  UNL1        0.1708
     14 C         138.2372  139.9106  163.9156 C.ar    1  UNL1        0.1682
     15 N         138.0654  141.1473  163.0843 N.ar    1  UNL1       -0.2304
     16 N         137.9085  139.9388  165.3789 N.am    1  UNL1       -0.2639
     17 C         138.0804  138.7021  166.2101 C.2     1  UNL1        0.2718
     18 O         137.7517  138.7303  167.6734 O.2     1  UNL1       -0.2707
     19 C         138.5810  137.4372  165.5781 C.3     1  UNL1        0.2898
     20 O         138.9097  137.4090  164.1149 O.3     1  UNL1       -0.4628
     21 H         137.5800  140.7690  165.7937 H       1  UNL1        0.1565
     22 O         138.8581  144.8968  164.0818 O.3     1  UNL1       -0.3508
     23 C         138.8590  144.9024  165.5818 C.3     1  UNL1        0.1741
     24 C         144.0278  144.4416  163.8221 C.3     1  UNL1        0.0970
     25 C         144.4637  143.5578  164.9530 C.3     1  UNL1        0.1264
     26 C         141.2742  141.7572  167.5674 C.ar    1  UNL1        0.1403
     27 C         141.0046  140.2827  167.5137 C.ar    1  UNL1        0.0385
     28 C         141.7982  139.4083  166.5887 C.ar    1  UNL1        0.0237
     29 C         142.8613  140.0084  165.7173 C.ar    1  UNL1        0.0975
     30 N         143.6549  139.1340  164.7922 N.ar    1  UNL1       -0.2374
     31 C         144.7180  139.7342  163.9208 C.ar    1  UNL1        0.1594
     32 C         144.9877  141.2089  163.9744 C.ar    1  UNL1        0.2803
     33 O         146.0508  141.8090  163.1029 O.2     1  UNL1       -0.2653
     34 N         144.1941  142.0833  164.8994 N.ar    1  UNL1       -0.2913
     35 C         143.1309  141.4830  165.7709 C.ar    1  UNL1        0.0832
     36 C         142.3374  142.3574  166.6959 C.ar    1  UNL1        0.0557
     37 C         140.0807  142.1234  169.8458 C.3     1  UNL1        0.2525
     38 O         140.4807  142.6316  168.4924 O.3     1  UNL1       -0.4714
@<TRIPOS>BOND
     1    37    38    1
     2    38    26    1
     3    26    27   ar
     4    27    28   ar
     5    28    29   ar
     6    29    30   ar
     7    30    31   ar
     8    31    32   ar
     9    32    33    2
    10    32    34   ar
    11    34    25    1
    12    25    24    1
    13    24     1    1
    14     1     2    1
    15     2     3    1
    16     3     4    1
    17     4     7    1
    18     7     9    1
    19     9    10    1
    20    10    11   ar
    21    11    12   ar
    22    12    13   ar
    23    13    14   ar
    24    14    15   ar
    25    14    16    1
    26    16    17   am
    27    17    18    2
    28    17    19    1
    29    19    20    1
    30     4     5    1
    31     5    22    1
    32    22    23    1
    33     5     6    1
    34    34    35   ar
    35    35    36   ar
    36    36    26   ar
    37    35    29   ar
    38     6     1    1
    39    15    10   ar
    40    20    13    1
    41     7     8    1
    42    16    21    1
@<TRIPOS>MOLECULE
*****
 38 42 0 0 0
SMALL
GASTEIGER

@<TRIPOS>ATOM
      1 N         141.8751  138.1856  163.9214 N.3     1  UNL1       -0.2689
      2 C         142.8327  138.5546  165.0154 C.3     1  UNL1        0.0737
      3 C         144.0618  139.3537  164.6984 C.3     1  UNL1        0.0356
      4 C         144.3334  139.7839  163.2873 C.3     1  UNL1        0.0846
      5 C         143.3759  139.4148  162.1933 C.3     1  UNL1        0.1455
      6 C         142.1467  138.6157  162.5103 C.3     1  UNL1        0.1034
      7 N         145.5626  140.5831  162.9702 N.3     1  UNL1       -0.2915
      8 H         145.6864  140.5438  161.9585 H       1  UNL1        0.1236
      9 C         145.6378  142.0296  163.3599 C.3     1  UNL1        0.1152
     10 C         144.4332  142.9105  163.2095 C.ar    1  UNL1        0.0765
     11 C         143.7884  143.5128  164.4226 C.ar    1  UNL1        0.0193
     12 C         142.5836  144.3938  164.2722 C.ar    1  UNL1        0.0411
     13 C         142.0237  144.6724  162.9088 C.ar    1  UNL1        0.1708
     14 C         142.6685  144.0700  161.6957 C.ar    1  UNL1        0.1682
     15 N         143.8732  143.1891  161.8461 N.ar    1  UNL1       -0.2304
     16 N         142.1086  144.3486  160.3323 N.am    1  UNL1       -0.2639
     17 C         140.9038  145.2296  160.1820 C.2     1  UNL1        0.2718
     18 O         140.3439  145.5081  158.8186 O.2     1  UNL1       -0.2707
     19 C         140.2591  145.8319  161.3950 C.3     1  UNL1        0.2898
     20 O         140.8190  145.5533  162.7584 O.3     1  UNL1       -0.4628
     21 H         142.5318  143.9532  159.5362 H       1  UNL1        0.1565
     22 O         143.6475  139.8450  160.7821 O.3     1  UNL1       -0.3508
     23 C         143.2242  138.9728  159.6375 C.3     1  UNL1        0.1741
     24 C         140.6459  137.3864  164.2385 C.3     1  UNL1        0.0970
     25 C         139.4147  138.0748  164.7487 C.3     1  UNL1        0.1264
     26 C         140.2461  142.0126  166.7616 C.ar    1  UNL1        0.1403
     27 C         139.7845  143.2912  166.1275 C.ar    1  UNL1        0.0385
     28 C         139.0458  143.2572  164.8225 C.ar    1  UNL1        0.0237
     29 C         138.7687  141.9446  164.1515 C.ar    1  UNL1        0.0975
     30 N         138.0299  141.9106  162.8465 N.ar    1  UNL1       -0.2374
     31 C         137.7528  140.5980  162.1755 C.ar    1  UNL1        0.1594
     32 C         138.2144  139.3194  162.8096 C.ar    1  UNL1        0.2803
     33 O         137.9373  138.0068  162.1386 O.2     1  UNL1       -0.2653
     34 N         138.9531  139.3533  164.1146 N.ar    1  UNL1       -0.2913
     35 C         139.2303  140.6660  164.7856 C.ar    1  UNL1        0.0832
     36 C         139.9690  140.7000  166.0906 C.ar    1  UNL1        0.0557
     37 C         140.2311  141.9316  169.3584 C.3     1  UNL1        0.2525
     38 O         140.9849  142.0466  168.0666 O.3     1  UNL1       -0.4714
@<TRIPOS>BOND
     1    37    38    1
     2    38    26    1
     3    26    27   ar
     4    27    28   ar
     5    28    29   ar
     6    29    30   ar
     7    30    31   ar
     8    31    32   ar
     9    32    33    2
    10    32    34   ar
    11    34    25    1
    12    25    24    1
    13    24     1    1
    14     1     2    1
    15     2     3    1
    16     3     4    1
    17     4     7    1
    18     7     9    1
    19     9    10    1
    20    10    11   ar
    21    11    12   ar
    22    12    13   ar
    23    13    14   ar
    24    14    15   ar
    25    14    16    1
    26    16    17   am
    27    17    18    2
    28    17    19    1
    29    19    20    1
    30     4     5    1
    31     5    22    1
    32    22    23    1
    33     5     6    1
    34    34    35   ar
    35    35    36   ar
    36    36    26   ar
    37    35    29   ar
    38     6     1    1
    39    15    10   ar
    40    20    13    1
    41     7     8    1
    42    16    21    1
@<TRIPOS>MOLECULE
*****
 38 42 0 0 0
SMALL
GASTEIGER

@<TRIPOS>ATOM
      1 N         144.4907  140.0415  163.4867 N.3     1  UNL1       -0.2689
      2 C         143.8448  139.1537  164.5088 C.3     1  UNL1        0.0737
      3 C         142.7278  138.2367  164.1071 C.3     1  UNL1        0.0356
      4 C         142.2568  138.2075  162.6833 C.3     1  UNL1        0.0846
      5 C         142.9028  139.0952  161.6612 C.3     1  UNL1        0.1455
      6 C         144.0197  140.0122  162.0629 C.3     1  UNL1        0.1034
      7 N         141.1398  137.2904  162.2815 N.3     1  UNL1       -0.2915
      8 H         140.9633  136.6757  163.0760 H       1  UNL1        0.1236
      9 C         139.8138  137.8588  161.8708 C.3     1  UNL1        0.1152
     10 C         139.2563  139.0539  162.5855 C.ar    1  UNL1        0.0765
     11 C         138.6278  138.8932  163.9380 C.ar    1  UNL1        0.0193
     12 C         138.0703  140.0884  164.6527 C.ar    1  UNL1        0.0411
     13 C         138.1412  141.4442  164.0149 C.ar    1  UNL1        0.1708
     14 C         138.7697  141.6049  162.6624 C.ar    1  UNL1        0.1682
     15 N         139.3272  140.4097  161.9477 N.ar    1  UNL1       -0.2304
     16 N         138.8406  142.9607  162.0246 N.am    1  UNL1       -0.2639
     17 C         138.2831  144.1558  162.7394 C.2     1  UNL1        0.2718
     18 O         138.3540  145.5116  162.1016 O.2     1  UNL1       -0.2707
     19 C         137.6546  143.9951  164.0919 C.3     1  UNL1        0.2898
     20 O         137.5837  142.6393  164.7296 O.3     1  UNL1       -0.4628
     21 H         139.2531  143.0661  161.1370 H       1  UNL1        0.1565
     22 O         142.4317  139.0659  160.2374 O.3     1  UNL1       -0.3508
     23 C         142.8744  137.9619  159.3235 C.3     1  UNL1        0.1741
     24 C         145.6078  140.9585  163.8885 C.3     1  UNL1        0.0970
     25 C         145.3019  142.3415  164.3824 C.3     1  UNL1        0.1264
     26 C         142.3042  141.7584  167.6876 C.ar    1  UNL1        0.1403
     27 C         140.9181  142.3146  167.5495 C.ar    1  UNL1        0.0385
     28 C         140.5311  143.0652  166.3098 C.ar    1  UNL1        0.0237
     29 C         141.5303  143.2595  165.2081 C.ar    1  UNL1        0.0975
     30 N         141.1433  144.0101  163.9684 N.ar    1  UNL1       -0.2374
     31 C         142.1425  144.2045  162.8667 C.ar    1  UNL1        0.1594
     32 C         143.5288  143.6482  163.0047 C.ar    1  UNL1        0.2803
     33 O         144.5280  143.8426  161.9030 O.2     1  UNL1       -0.2653
     34 N         143.9158  142.8977  164.2444 N.ar    1  UNL1       -0.2913
     35 C         142.9165  142.7033  165.3461 C.ar    1  UNL1        0.0832
     36 C         143.3034  141.9528  166.5859 C.ar    1  UNL1        0.0557
     37 C         142.3955  139.5416  169.0393 C.3     1  UNL1        0.2525
     38 O         142.6912  141.0078  168.9273 O.3     1  UNL1       -0.4714
@<TRIPOS>BOND
     1    37    38    1
     2    38    26    1
     3    26    27   ar
     4    27    28   ar
     5    28    29   ar
     6    29    30   ar
     7    30    31   ar
     8    31    32   ar
     9    32    33    2
    10    32    34   ar
    11    34    25    1
    12    25    24    1
    13    24     1    1
    14     1     2    1
    15     2     3    1
    16     3     4    1
    17     4     7    1
    18     7     9    1
    19     9    10    1
    20    10    11   ar
    21    11    12   ar
    22    12    13   ar
    23    13    14   ar
    24    14    15   ar
    25    14    16    1
    26    16    17   am
    27    17    18    2
    28    17    19    1
    29    19    20    1
    30     4     5    1
    31     5    22    1
    32    22    23    1
    33     5     6    1
    34    34    35   ar
    35    35    36   ar
    36    36    26   ar
    37    35    29   ar
    38     6     1    1
    39    15    10   ar
    40    20    13    1
    41     7     8    1
    42    16    21    1
@<TRIPOS>MOLECULE
*****
 38 42 0 0 0
SMALL
GASTEIGER

@<TRIPOS>ATOM
      1 N         143.3532  140.3807  160.7171 N.3     1  UNL1       -0.2689
      2 C         144.1408  139.2397  161.2898 C.3     1  UNL1        0.0737
      3 C         143.4334  138.1131  161.9827 C.3     1  UNL1        0.0356
      4 C         141.9383  138.1275  162.1030 C.3     1  UNL1        0.0846
      5 C         141.1507  139.2684  161.5304 C.3     1  UNL1        0.1455
      6 C         141.8581  140.3950  160.8374 C.3     1  UNL1        0.1034
      7 N         141.2307  137.0008  162.7960 N.3     1  UNL1       -0.2915
      8 H         141.6646  136.1366  162.4713 H       1  UNL1        0.1236
      9 C         141.2086  136.9379  164.2945 C.3     1  UNL1        0.1152
     10 C         140.9170  138.1738  165.0929 C.ar    1  UNL1        0.0765
     11 C         139.5233  138.7265  165.1370 C.ar    1  UNL1        0.0193
     12 C         139.2316  139.9625  165.9354 C.ar    1  UNL1        0.0411
     13 C         140.3337  140.6456  166.6896 C.ar    1  UNL1        0.1708
     14 C         141.7274  140.0928  166.6454 C.ar    1  UNL1        0.1682
     15 N         142.0191  138.8569  165.8470 N.ar    1  UNL1       -0.2304
     16 N         142.8295  140.7759  167.3996 N.am    1  UNL1       -0.2639
     17 C         142.5378  142.0119  168.1980 C.2     1  UNL1        0.2718
     18 O         143.6399  142.6950  168.9522 O.2     1  UNL1       -0.2707
     19 C         141.1441  142.5647  168.2422 C.3     1  UNL1        0.2898
     20 O         140.0420  141.8815  167.4880 O.3     1  UNL1       -0.4628
     21 H         143.7442  140.4131  167.3706 H       1  UNL1        0.1565
     22 O         139.6555  139.2827  161.6507 O.3     1  UNL1       -0.3508
     23 C         138.8137  138.5856  160.6233 C.3     1  UNL1        0.1741
     24 C         144.0607  141.5073  160.0241 C.3     1  UNL1        0.0970
     25 C         144.4617  142.7291  160.7965 C.3     1  UNL1        0.1264
     26 C         140.6115  144.8856  161.6766 C.ar    1  UNL1        0.1403
     27 C         140.1564  145.0590  163.0953 C.ar    1  UNL1        0.0385
     28 C         140.9846  144.5135  164.2207 C.ar    1  UNL1        0.0237
     29 C         142.2680  143.7946  163.9273 C.ar    1  UNL1        0.0975
     30 N         143.0963  143.2491  165.0527 N.ar    1  UNL1       -0.2374
     31 C         144.3797  142.5303  164.7593 C.ar    1  UNL1        0.1594
     32 C         144.8349  142.3569  163.3405 C.ar    1  UNL1        0.2803
     33 O         146.1183  141.6381  163.0472 O.2     1  UNL1       -0.2653
     34 N         144.0066  142.9024  162.2152 N.ar    1  UNL1       -0.2913
     35 C         142.7231  143.6213  162.5086 C.ar    1  UNL1        0.0832
     36 C         141.8949  144.1668  161.3833 C.ar    1  UNL1        0.0557
     37 C         140.3180  145.4148  159.1500 C.3     1  UNL1        0.2525
     38 O         139.7832  145.4312  160.5513 O.3     1  UNL1       -0.4714
@<TRIPOS>BOND
     1    37    38    1
     2    38    26    1
     3    26    27   ar
     4    27    28   ar
     5    28    29   ar
     6    29    30   ar
     7    30    31   ar
     8    31    32   ar
     9    32    33    2
    10    32    34   ar
    11    34    25    1
    12    25    24    1
    13    24     1    1
    14     1     2    1
    15     2     3    1
    16     3     4    1
    17     4     7    1
    18     7     9    1
    19     9    10    1
    20    10    11   ar
    21    11    12   ar
    22    12    13   ar
    23    13    14   ar
    24    14    15   ar
    25    14    16    1
    26    16    17   am
    27    17    18    2
    28    17    19    1
    29    19    20    1
    30     4     5    1
    31     5    22    1
    32    22    23    1
    33     5     6    1
    34    34    35   ar
    35    35    36   ar
    36    36    26   ar
    37    35    29   ar
    38     6     1    1
    39    15    10   ar
    40    20    13    1
    41     7     8    1
    42    16    21    1
@<TRIPOS>MOLECULE
*****
 38 42 0 0 0
SMALL
GASTEIGER

@<TRIPOS>ATOM
      1 N         143.8996  141.5611  163.9334 N.3     1  UNL1       -0.2689
      2 C         143.2488  142.3593  165.0240 C.3     1  UNL1        0.0737
      3 C         142.5790  143.6623  164.7023 C.3     1  UNL1        0.0356
      4 C         142.5600  144.1671  163.2900 C.3     1  UNL1        0.0846
      5 C         143.2108  143.3689  162.1994 C.3     1  UNL1        0.1455
      6 C         143.8806  142.0659  162.5211 C.3     1  UNL1        0.1034
      7 N         141.8902  145.4701  162.9682 N.3     1  UNL1       -0.2915
      8 H         142.3590  145.8466  162.1443 H       1  UNL1        0.1236
      9 C         140.4180  145.5063  162.6831 C.3     1  UNL1        0.1152
     10 C         139.6670  144.2285  162.4525 C.ar    1  UNL1        0.0765
     11 C         138.8840  143.6066  163.5706 C.ar    1  UNL1        0.0193
     12 C         138.1330  142.3287  163.3401 C.ar    1  UNL1        0.0411
     13 C         138.1652  141.6727  161.9915 C.ar    1  UNL1        0.1708
     14 C         138.9482  142.2947  160.8734 C.ar    1  UNL1        0.1682
     15 N         139.6992  143.5725  161.1040 N.ar    1  UNL1       -0.2304
     16 N         138.9804  141.6387  159.5248 N.am    1  UNL1       -0.2639
     17 C         138.2294  140.3608  159.2943 C.2     1  UNL1        0.2718
     18 O         138.2615  139.7048  157.9458 O.2     1  UNL1       -0.2707
     19 C         137.4464  139.7389  160.4124 C.3     1  UNL1        0.2898
     20 O         137.4142  140.3949  161.7610 O.3     1  UNL1       -0.4628
     21 H         139.4943  142.0469  158.7910 H       1  UNL1        0.1565
     22 O         143.1918  143.8738  160.7870 O.3     1  UNL1       -0.3508
     23 C         143.0333  142.9105  159.6482 C.3     1  UNL1        0.1741
     24 C         144.5694  140.2581  164.2552 C.3     1  UNL1        0.0970
     25 C         143.7510  139.0868  164.7119 C.3     1  UNL1        0.1264
     26 C         139.8160  139.7551  166.7900 C.ar    1  UNL1        0.1403
     27 C         138.5321  139.4191  166.0910 C.ar    1  UNL1        0.0385
     28 C         138.5599  138.8603  164.6992 C.ar    1  UNL1        0.0237
     29 C         139.8715  138.6375  164.0065 C.ar    1  UNL1        0.0975
     30 N         139.8993  138.0788  162.6147 N.ar    1  UNL1       -0.2374
     31 C         141.2110  137.8560  161.9220 C.ar    1  UNL1        0.1594
     32 C         142.4949  138.1920  162.6211 C.ar    1  UNL1        0.2803
     33 O         143.8066  137.9693  161.9284 O.2     1  UNL1       -0.2653
     34 N         142.4672  138.7508  164.0128 N.ar    1  UNL1       -0.2913
     35 C         141.1554  138.9736  164.7055 C.ar    1  UNL1        0.0832
     36 C         141.1276  139.5323  166.0973 C.ar    1  UNL1        0.0557
     37 C         140.3535  141.6762  168.4544 C.3     1  UNL1        0.2525
     38 O         139.7882  140.3139  168.1818 O.3     1  UNL1       -0.4714
@<TRIPOS>BOND
     1    37    38    1
     2    38    26    1
     3    26    27   ar
     4    27    28   ar
     5    28    29   ar
     6    29    30   ar
     7    30    31   ar
     8    31    32   ar
     9    32    33    2
    10    32    34   ar
    11    34    25    1
    12    25    24    1
    13    24     1    1
    14     1     2    1
    15     2     3    1
    16     3     4    1
    17     4     7    1
    18     7     9    1
    19     9    10    1
    20    10    11   ar
    21    11    12   ar
    22    12    13   ar
    23    13    14   ar
    24    14    15   ar
    25    14    16    1
    26    16    17   am
    27    17    18    2
    28    17    19    1
    29    19    20    1
    30     4     5    1
    31     5    22    1
    32    22    23    1
    33     5     6    1
    34    34    35   ar
    35    35    36   ar
    36    36    26   ar
    37    35    29   ar
    38     6     1    1
    39    15    10   ar
    40    20    13    1
    41     7     8    1
    42    16    21    1
@<TRIPOS>MOLECULE
*****
 38 42 0 0 0
SMALL
GASTEIGER

@<TRIPOS>ATOM
      1 N         138.1001  141.2611  160.9834 N.3     1  UNL1       -0.2689
      2 C         137.4583  140.9054  162.2917 C.3     1  UNL1        0.0737
      3 C         137.4016  141.9161  163.3986 C.3     1  UNL1        0.0356
      4 C         137.9867  143.2825  163.1972 C.3     1  UNL1        0.0846
      5 C         138.6285  143.6382  161.8889 C.3     1  UNL1        0.1455
      6 C         138.6851  142.6275  160.7820 C.3     1  UNL1        0.1034
      7 N         137.9300  144.2933  164.3041 N.3     1  UNL1       -0.2915
      8 H         137.1373  144.0400  164.8938 H       1  UNL1        0.1236
      9 C         139.1075  144.4741  165.2156 C.3     1  UNL1        0.1152
     10 C         140.1819  143.4288  165.2692 C.ar    1  UNL1        0.0765
     11 C         140.0245  142.2367  166.1660 C.ar    1  UNL1        0.0193
     12 C         141.0990  141.1914  166.2196 C.ar    1  UNL1        0.0411
     13 C         142.3308  141.3381  165.3764 C.ar    1  UNL1        0.1708
     14 C         142.4882  142.5302  164.4796 C.ar    1  UNL1        0.1682
     15 N         141.4138  143.5755  164.4260 N.ar    1  UNL1       -0.2304
     16 N         143.7201  142.6770  163.6364 N.am    1  UNL1       -0.2639
     17 C         144.7946  141.6316  163.6900 C.2     1  UNL1        0.2718
     18 O         146.0264  141.7783  162.8468 O.2     1  UNL1       -0.2707
     19 C         144.6371  140.4396  164.5868 C.3     1  UNL1        0.2898
     20 O         143.4053  140.2928  165.4300 O.3     1  UNL1       -0.4628
     21 H         143.8234  143.4594  163.0478 H       1  UNL1        0.1565
     22 O         139.2136  145.0047  161.6875 O.3     1  UNL1       -0.3508
     23 C         140.5938  145.1533  161.1192 C.3     1  UNL1        0.1741
     24 C         138.1567  140.2504  159.8765 C.3     1  UNL1        0.0970
     25 C         138.5893  138.8437  160.1667 C.3     1  UNL1        0.1264
     26 C         139.5501  137.7740  164.4308 C.ar    1  UNL1        0.1403
     27 C         140.9678  137.4930  164.8324 C.ar    1  UNL1        0.0385
     28 C         142.0652  137.5687  163.8126 C.ar    1  UNL1        0.0237
     29 C         141.7449  137.9253  162.3912 C.ar    1  UNL1        0.0975
     30 N         142.8423  138.0009  161.3714 N.ar    1  UNL1       -0.2374
     31 C         142.5221  138.3575  159.9501 C.ar    1  UNL1        0.1594
     32 C         141.1044  138.6384  159.5485 C.ar    1  UNL1        0.2803
     33 O         140.7841  138.9950  158.1271 O.2     1  UNL1       -0.2653
     34 N         140.0070  138.5628  160.5683 N.ar    1  UNL1       -0.2913
     35 C         140.3273  138.2062  161.9897 C.ar    1  UNL1        0.0832
     36 C         139.2299  138.1306  163.0095 C.ar    1  UNL1        0.0557
     37 C         138.1253  138.8973  166.2904 C.3     1  UNL1        0.2525
     38 O         138.4527  137.6983  165.4506 O.3     1  UNL1       -0.4714
@<TRIPOS>BOND
     1    37    38    1
     2    38    26    1
     3    26    27   ar
     4    27    28   ar
     5    28    29   ar
     6    29    30   ar
     7    30    31   ar
     8    31    32   ar
     9    32    33    2
    10    32    34   ar
    11    34    25    1
    12    25    24    1
    13    24     1    1
    14     1     2    1
    15     2     3    1
    16     3     4    1
    17     4     7    1
    18     7     9    1
    19     9    10    1
    20    10    11   ar
    21    11    12   ar
    22    12    13   ar
    23    13    14   ar
    24    14    15   ar
    25    14    16    1
    26    16    17   am
    27    17    18    2
    28    17    19    1
    29    19    20    1
    30     4     5    1
    31     5    22    1
    32    22    23    1
    33     5     6    1
    34    34    35   ar
    35    35    36   ar
    36    36    26   ar
    37    35    29   ar
    38     6     1    1
    39    15    10   ar
    40    20    13    1
    41     7     8    1
    42    16    21    1
@<TRIPOS>MOLECULE
*****
 38 42 0 0 0
SMALL
GASTEIGER

@<TRIPOS>ATOM
      1 N         137.9029  140.5111  161.9074 N.3     1  UNL1       -0.2689
      2 C         137.5415  140.7387  163.3453 C.3     1  UNL1        0.0737
      3 C         137.7375  142.0915  163.9628 C.3     1  UNL1        0.0356
      4 C         138.2950  143.2167  163.1424 C.3     1  UNL1        0.0846
      5 C         138.6564  142.9891  161.7045 C.3     1  UNL1        0.1455
      6 C         138.4604  141.6363  161.0870 C.3     1  UNL1        0.1034
      7 N         138.4911  144.5697  163.7599 N.3     1  UNL1       -0.2915
      8 H         137.6457  144.7757  164.2922 H       1  UNL1        0.1236
      9 C         139.6515  144.8138  164.6785 C.3     1  UNL1        0.1152
     10 C         141.0275  144.3654  164.2841 C.ar    1  UNL1        0.0765
     11 C         141.9268  145.2899  163.5183 C.ar    1  UNL1        0.0193
     12 C         143.3028  144.8415  163.1238 C.ar    1  UNL1        0.0411
     13 C         143.7795  143.4686  163.4953 C.ar    1  UNL1        0.1708
     14 C         142.8801  142.5441  164.2612 C.ar    1  UNL1        0.1682
     15 N         141.5042  142.9925  164.6555 N.ar    1  UNL1       -0.2304
     16 N         143.3568  141.1713  164.6326 N.am    1  UNL1       -0.2639
     17 C         144.7329  140.7229  164.2382 C.2     1  UNL1        0.2718
     18 O         145.2096  139.3500  164.6096 O.2     1  UNL1       -0.2707
     19 C         145.6322  141.6474  163.4724 C.3     1  UNL1        0.2898
     20 O         145.1555  143.0203  163.1009 O.3     1  UNL1       -0.4628
     21 H         142.7666  140.5645  165.1353 H       1  UNL1        0.1565
     22 O         139.2139  144.1144  160.8841 O.3     1  UNL1       -0.3508
     23 C         139.9232  143.8228  159.5949 C.3     1  UNL1        0.1741
     24 C         137.7068  139.1581  161.2899 C.3     1  UNL1        0.0970
     25 C         138.2592  137.9382  161.9657 C.3     1  UNL1        0.1264
     26 C         141.9956  138.3813  159.4973 C.ar    1  UNL1        0.1403
     27 C         143.3357  138.4378  160.1688 C.ar    1  UNL1        0.0385
     28 C         143.4303  138.3466  161.6630 C.ar    1  UNL1        0.0237
     29 C         142.1849  138.1988  162.4858 C.ar    1  UNL1        0.0975
     30 N         142.2796  138.1076  163.9800 N.ar    1  UNL1       -0.2374
     31 C         141.0341  137.9599  164.8028 C.ar    1  UNL1        0.1594
     32 C         139.6939  137.9034  164.1313 C.ar    1  UNL1        0.2803
     33 O         138.4485  137.7556  164.9541 O.2     1  UNL1       -0.2653
     34 N         139.5993  137.9946  162.6371 N.ar    1  UNL1       -0.2913
     35 C         140.8448  138.1424  161.8143 C.ar    1  UNL1        0.0832
     36 C         140.7502  138.2336  160.3201 C.ar    1  UNL1        0.0557
     37 C         142.4352  137.3617  157.1485 C.3     1  UNL1        0.2525
     38 O         141.9009  138.4726  158.0031 O.3     1  UNL1       -0.4714
@<TRIPOS>BOND
     1    37    38    1
     2    38    26    1
     3    26    27   ar
     4    27    28   ar
     5    28    29   ar
     6    29    30   ar
     7    30    31   ar
     8    31    32   ar
     9    32    33    2
    10    32    34   ar
    11    34    25    1
    12    25    24    1
    13    24     1    1
    14     1     2    1
    15     2     3    1
    16     3     4    1
    17     4     7    1
    18     7     9    1
    19     9    10    1
    20    10    11   ar
    21    11    12   ar
    22    12    13   ar
    23    13    14   ar
    24    14    15   ar
    25    14    16    1
    26    16    17   am
    27    17    18    2
    28    17    19    1
    29    19    20    1
    30     4     5    1
    31     5    22    1
    32    22    23    1
    33     5     6    1
    34    34    35   ar
    35    35    36   ar
    36    36    26   ar
    37    35    29   ar
    38     6     1    1
    39    15    10   ar
    40    20    13    1
    41     7     8    1
    42    16    21    1
@<TRIPOS>MOLECULE
*****
 38 42 0 0 0
SMALL
GASTEIGER

@<TRIPOS>ATOM
      1 N         142.6772  139.2178  162.0781 N.3     1  UNL1       -0.2689
      2 C         141.3069  138.8589  161.5845 C.3     1  UNL1        0.0737
      3 C         140.3000  138.2709  162.5281 C.3     1  UNL1        0.0356
      4 C         140.6634  138.0418  163.9652 C.3     1  UNL1        0.0846
      5 C         142.0336  138.4007  164.4588 C.3     1  UNL1        0.1455
      6 C         143.0405  138.9887  163.5152 C.3     1  UNL1        0.1034
      7 N         139.6565  137.4538  164.9089 N.3     1  UNL1       -0.2915
      8 H         140.1822  136.9625  165.6318 H       1  UNL1        0.1236
      9 C         138.6797  138.3466  165.6151 C.3     1  UNL1        0.1152
     10 C         139.1638  139.5795  166.3191 C.ar    1  UNL1        0.0765
     11 C         139.4925  140.8128  165.5311 C.ar    1  UNL1        0.0193
     12 C         139.9767  142.0457  166.2351 C.ar    1  UNL1        0.0411
     13 C         140.1321  142.0453  167.7270 C.ar    1  UNL1        0.1708
     14 C         139.8034  140.8119  168.5150 C.ar    1  UNL1        0.1682
     15 N         139.3192  139.5791  167.8110 N.ar    1  UNL1       -0.2304
     16 N         139.9588  140.8115  170.0069 N.am    1  UNL1       -0.2639
     17 C         140.4429  142.0445  170.7109 C.2     1  UNL1        0.2718
     18 O         140.5983  142.0441  172.2028 O.2     1  UNL1       -0.2707
     19 C         140.7716  143.2778  169.9229 C.3     1  UNL1        0.2898
     20 O         140.6162  143.2782  168.4310 O.3     1  UNL1       -0.4628
     21 H         139.7430  140.0021  170.5241 H       1  UNL1        0.1565
     22 O         142.3970  138.1716  165.8960 O.3     1  UNL1       -0.3508
     23 C         143.8345  138.2148  166.3223 C.3     1  UNL1        0.1741
     24 C         143.6841  139.8058  161.1344 C.3     1  UNL1        0.0970
     25 C         143.7438  141.2908  160.9313 C.3     1  UNL1        0.1264
     26 C         139.8519  143.4976  161.4138 C.ar    1  UNL1        0.1403
     27 C         139.6535  144.4224  162.5780 C.ar    1  UNL1        0.0385
     28 C         140.7524  144.6117  163.5813 C.ar    1  UNL1        0.0237
     29 C         142.0497  143.8761  163.4205 C.ar    1  UNL1        0.0975
     30 N         143.1485  144.0653  164.4238 N.ar    1  UNL1       -0.2374
     31 C         144.4458  143.3297  164.2630 C.ar    1  UNL1        0.1594
     32 C         144.6443  142.4048  163.0988 C.ar    1  UNL1        0.2803
     33 O         145.9416  141.6693  162.9379 O.2     1  UNL1       -0.2653
     34 N         143.5454  142.2156  162.0954 N.ar    1  UNL1       -0.2913
     35 C         142.2481  142.9513  162.2563 C.ar    1  UNL1        0.0832
     36 C         141.1492  142.7620  161.2530 C.ar    1  UNL1        0.0557
     37 C         138.9931  142.4817  159.1822 C.3     1  UNL1        0.2525
     38 O         138.7530  143.3084  160.4105 O.3     1  UNL1       -0.4714
@<TRIPOS>BOND
     1    37    38    1
     2    38    26    1
     3    26    27   ar
     4    27    28   ar
     5    28    29   ar
     6    29    30   ar
     7    30    31   ar
     8    31    32   ar
     9    32    33    2
    10    32    34   ar
    11    34    25    1
    12    25    24    1
    13    24     1    1
    14     1     2    1
    15     2     3    1
    16     3     4    1
    17     4     7    1
    18     7     9    1
    19     9    10    1
    20    10    11   ar
    21    11    12   ar
    22    12    13   ar
    23    13    14   ar
    24    14    15   ar
    25    14    16    1
    26    16    17   am
    27    17    18    2
    28    17    19    1
    29    19    20    1
    30     4     5    1
    31     5    22    1
    32    22    23    1
    33     5     6    1
    34    34    35   ar
    35    35    36   ar
    36    36    26   ar
    37    35    29   ar
    38     6     1    1
    39    15    10   ar
    40    20    13    1
    41     7     8    1
    42    16    21    1
