@<TRIPOS>MOLECULE
*****
 39 44 0 0 0
SMALL
GASTEIGER

@<TRIPOS>ATOM
      1 C         142.6795  135.6698  157.3412 C.ar    1  UNL1        0.2400
      2 N         142.1728  135.2867  155.9823 N.ar    1  UNL1       -0.2090
      3 C         141.4966  136.3096  155.1181 C.ar    1  UNL1        0.1021
      4 C         141.1629  137.8043  155.3041 C.ar    1  UNL1        0.0221
      5 C         141.8644  137.2086  156.4886 C.ar    1  UNL1        0.0222
      6 C         142.5101  137.0757  157.8359 C.ar    1  UNL1        0.1178
      7 N         143.0301  137.4200  159.2001 N.pl3   1  UNL1       -0.2104
      8 S         143.3680  138.2042  160.4334 S.O2    1  UNL1        0.0737
      9 O         143.7974  136.7684  160.4958 O.2     1  UNL1       -0.1499
     10 O         144.0508  137.8348  161.7167 O.2     1  UNL1       -0.1499
     11 C         143.4329  139.6879  161.4952 C.ar    1  UNL1        0.1253
     12 C         144.0995  139.4358  162.8150 C.ar    1  UNL1        0.0202
     13 C         144.2377  140.5496  163.8102 C.ar    1  UNL1        0.0015
     14 C         143.7094  141.9154  163.4854 C.ar    1  UNL1        0.0046
     15 C         143.0428  142.1674  162.1655 C.ar    1  UNL1        0.0547
     16 C         142.9046  141.0536  161.1704 C.ar    1  UNL1        0.0247
     17 C         142.5275  143.5464  161.8777 C.2     1  UNL1        0.2459
     18 O         142.9151  144.2269  163.1571 O.2     1  UNL1       -0.2701
     19 N         141.8845  144.7014  161.1689 N.am    1  UNL1       -0.2989
     20 C         141.1836  145.5073  160.1155 C.3     1  UNL1        0.1161
     21 C         140.5007  145.8766  158.8321 C.3     1  UNL1        0.1487
     22 N         139.9097  145.7695  157.4575 N.ar    1  UNL1       -0.2476
     23 C         139.4749  145.1974  156.1409 C.ar    1  UNL1        0.0982
     24 C         139.2432  144.2225  155.0248 C.ar    1  UNL1        0.0573
     25 C         138.7606  145.6288  154.8264 C.ar    1  UNL1        0.1231
     26 N         139.0985  146.4130  156.0597 N.ar    1  UNL1       -0.1676
     27 C         139.2398  142.9502  154.2301 C.ar    1  UNL1        0.0875
     28 C         138.5362  143.6323  153.0944 C.ar    1  UNL1        0.1181
     29 N         138.3267  142.6222  152.0054 N.ar    1  UNL1       -0.2249
     30 C         138.9007  141.3160  152.4681 C.ar    1  UNL1        0.1478
     31 C         139.2880  139.5351  152.2239 C.ar    1  UNL1        0.0374
     32 C         139.9558  138.4717  153.0445 C.ar    1  UNL1        0.0046
     33 C         140.4817  138.7983  154.4108 C.ar    1  UNL1        0.0192
     34 C         139.8945  140.0828  153.9054 C.ar    1  UNL1        0.0814
     35 N         139.4650  141.5187  153.8430 N.ar    1  UNL1       -0.2887
     36 H         143.3931  136.5429  159.4613 H       1  UNL1        0.1739
     37 H         142.0001  145.3975  161.8554 H       1  UNL1        0.1498
     38 C         144.1000  133.5071  157.5755 C.3     1  UNL1        0.2543
     39 O         143.3556  134.6470  158.2052 O.3     1  UNL1       -0.4553
@<TRIPOS>BOND
     1    38    39    1
     2    39     1    1
     3     1     2   ar
     4     2     3   ar
     5     3     4   ar
     6     4     5   ar
     7     5     6   ar
     8     6     7    1
     9     7     8    1
    10     8     9    2
    11     8    10    2
    12     8    11    1
    13    11    12   ar
    14    12    13   ar
    15    13    14   ar
    16    14    15   ar
    17    15    16   ar
    18    15    17    1
    19    17    18    2
    20    17    19   am
    21    19    20    1
    22    20    21    1
    23    21    22    1
    24    22    23   ar
    25    23    24   ar
    26    24    25   ar
    27    25    26   ar
    28    24    27    1
    29    27    28   ar
    30    28    29   ar
    31    29    30   ar
    32    30    31   ar
    33    31    32   ar
    34    32    33   ar
    35    33    34   ar
    36    34    35   ar
    37     6     1   ar
    38    16    11   ar
    39    26    22   ar
    40    35    27   ar
    41    33     4    1
    42    35    30   ar
    43     7    36    1
    44    19    37    1
@<TRIPOS>MOLECULE
*****
 39 44 0 0 0
SMALL
GASTEIGER

@<TRIPOS>ATOM
      1 C         139.2913  146.9553  156.8635 C.ar    1  UNL1        0.2400
      2 N         139.2502  146.9097  155.3647 N.ar    1  UNL1       -0.2090
      3 C         139.6797  145.6685  154.6401 C.ar    1  UNL1        0.1021
      4 C         140.2041  144.2942  155.1054 C.ar    1  UNL1        0.0221
      5 C         139.9055  145.2237  156.2441 C.ar    1  UNL1        0.0222
      6 C         139.7617  145.7598  157.6376 C.ar    1  UNL1        0.1178
      7 N         139.7884  145.8441  159.1350 N.pl3   1  UNL1       -0.2104
      8 S         139.9826  145.4677  160.5740 S.O2    1  UNL1        0.0737
      9 O         139.4617  146.8610  160.3806 O.2     1  UNL1       -0.1499
     10 O         139.7584  146.2107  161.8576 O.2     1  UNL1       -0.1499
     11 C         140.4407  144.3697  161.9588 C.ar    1  UNL1        0.1253
     12 C         140.2560  145.0114  163.3019 C.ar    1  UNL1        0.0202
     13 C         140.5858  144.2473  164.5498 C.ar    1  UNL1        0.0015
     14 C         141.1002  142.8415  164.4546 C.ar    1  UNL1        0.0046
     15 C         141.2848  142.1998  163.1114 C.ar    1  UNL1        0.0547
     16 C         140.9551  142.9639  161.8635 C.ar    1  UNL1        0.0247
     17 C         141.8013  140.7926  163.0574 C.2     1  UNL1        0.2459
     18 O         141.9550  140.5294  164.5261 O.2     1  UNL1       -0.2701
     19 N         142.2672  139.4720  162.5200 N.am    1  UNL1       -0.2989
     20 C         142.6321  138.3810  161.5572 C.3     1  UNL1        0.1161
     21 C         142.8564  137.6381  160.2735 C.3     1  UNL1        0.1487
     22 N         142.9157  137.3236  158.8081 N.ar    1  UNL1       -0.2476
     23 C         142.8037  137.4717  157.3196 C.ar    1  UNL1        0.0982
     24 C         142.5326  138.0661  155.9695 C.ar    1  UNL1        0.0573
     25 C         143.0525  136.6599  156.0146 C.ar    1  UNL1        0.1231
     26 N         143.2468  136.2835  157.4535 N.ar    1  UNL1       -0.1676
     27 C         142.1315  139.0428  154.9039 C.ar    1  UNL1        0.0875
     28 C         142.4577  138.0454  153.8321 C.ar    1  UNL1        0.1181
     29 N         142.1720  138.6818  152.5042 N.ar    1  UNL1       -0.2249
     30 C         141.6692  140.0724  152.7553 C.ar    1  UNL1        0.1478
     31 C         141.0460  141.7029  152.1771 C.ar    1  UNL1        0.0374
     32 C         140.6051  142.9697  152.8485 C.ar    1  UNL1        0.0046
     33 C         140.6253  143.0717  154.3449 C.ar    1  UNL1        0.0192
     34 C         141.1233  141.6889  154.0450 C.ar    1  UNL1        0.0814
     35 N         141.6442  140.2956  154.2383 N.ar    1  UNL1       -0.2887
     36 H         139.4543  146.7629  159.2515 H       1  UNL1        0.1739
     37 H         142.4687  139.0140  163.3678 H       1  UNL1        0.1498
     38 C         138.4886  149.4257  156.8137 C.3     1  UNL1        0.2543
     39 O         138.8618  148.1965  157.5880 O.3     1  UNL1       -0.4553
@<TRIPOS>BOND
     1    38    39    1
     2    39     1    1
     3     1     2   ar
     4     2     3   ar
     5     3     4   ar
     6     4     5   ar
     7     5     6   ar
     8     6     7    1
     9     7     8    1
    10     8     9    2
    11     8    10    2
    12     8    11    1
    13    11    12   ar
    14    12    13   ar
    15    13    14   ar
    16    14    15   ar
    17    15    16   ar
    18    15    17    1
    19    17    18    2
    20    17    19   am
    21    19    20    1
    22    20    21    1
    23    21    22    1
    24    22    23   ar
    25    23    24   ar
    26    24    25   ar
    27    25    26   ar
    28    24    27    1
    29    27    28   ar
    30    28    29   ar
    31    29    30   ar
    32    30    31   ar
    33    31    32   ar
    34    32    33   ar
    35    33    34   ar
    36    34    35   ar
    37     6     1   ar
    38    16    11   ar
    39    26    22   ar
    40    35    27   ar
    41    33     4    1
    42    35    30   ar
    43     7    36    1
    44    19    37    1
@<TRIPOS>MOLECULE
*****
 39 44 0 0 0
SMALL
GASTEIGER

@<TRIPOS>ATOM
      1 C         140.0661  145.7839  155.2839 C.ar    1  UNL1        0.2400
      2 N         139.7071  146.8727  156.2513 N.ar    1  UNL1       -0.2090
      3 C         139.7970  146.6237  157.7278 C.ar    1  UNL1        0.1021
      4 C         140.2084  145.4026  158.5764 C.ar    1  UNL1        0.0221
      5 C         140.2878  145.1446  157.1009 C.ar    1  UNL1        0.0222
      6 C         140.5150  144.4463  155.7929 C.ar    1  UNL1        0.1178
      7 N         140.8653  143.3833  154.7943 N.pl3   1  UNL1       -0.2104
      8 S         141.3008  142.0708  154.2132 S.O2    1  UNL1        0.0737
      9 O         140.9522  143.1010  153.1803 O.2     1  UNL1       -0.1499
     10 O         141.4562  141.5860  152.8022 O.2     1  UNL1       -0.1499
     11 C         141.8789  140.3398  154.2627 C.ar    1  UNL1        0.1253
     12 C         142.0708  139.7462  152.8986 C.ar    1  UNL1        0.0202
     13 C         142.5431  138.3296  152.7568 C.ar    1  UNL1        0.0015
     14 C         142.8234  137.5066  153.9791 C.ar    1  UNL1        0.0046
     15 C         142.6315  138.1001  155.3432 C.ar    1  UNL1        0.0547
     16 C         142.1592  139.5167  155.4850 C.ar    1  UNL1        0.0247
     17 C         142.9222  137.2455  156.5411 C.2     1  UNL1        0.2459
     18 O         143.3406  135.9828  155.8478 O.2     1  UNL1       -0.2701
     19 N         143.0753  136.8064  157.9672 N.am    1  UNL1       -0.2989
     20 C         143.0741  136.8305  159.4670 C.3     1  UNL1        0.1161
     21 C         142.9186  137.3153  160.8780 C.3     1  UNL1        0.1487
     22 N         142.6259  138.2082  162.0473 N.ar    1  UNL1       -0.2476
     23 C         142.2276  139.4124  162.8480 C.ar    1  UNL1        0.0982
     24 C         141.7668  140.7973  163.1936 C.ar    1  UNL1        0.0573
     25 C         142.0818  139.8694  164.3292 C.ar    1  UNL1        0.1231
     26 N         142.5173  138.5569  163.7481 N.ar    1  UNL1       -0.1676
     27 C         141.2935  142.2132  163.0465 C.ar    1  UNL1        0.0875
     28 C         141.2452  142.3781  164.5366 C.ar    1  UNL1        0.1181
     29 N         140.7809  143.7731  164.8337 N.ar    1  UNL1       -0.2249
     30 C         140.5422  144.4703  163.5273 C.ar    1  UNL1        0.1478
     31 C         140.0476  145.9385  162.5368 C.ar    1  UNL1        0.0374
     32 C         139.9391  146.2434  161.0722 C.ar    1  UNL1        0.0046
     33 C         140.2854  145.1923  160.0596 C.ar    1  UNL1        0.0192
     34 C         140.5104  144.5365  161.3898 C.ar    1  UNL1        0.0814
     35 N         140.8590  143.5062  162.4227 N.ar    1  UNL1       -0.2887
     36 H         140.6955  143.8807  153.9618 H       1  UNL1        0.1739
     37 H         143.3829  135.8828  157.8202 H       1  UNL1        0.1498
     38 C         141.0956  146.7329  153.0954 C.3     1  UNL1        0.2543
     39 O         139.9763  146.0330  153.8075 O.3     1  UNL1       -0.4553
@<TRIPOS>BOND
     1    38    39    1
     2    39     1    1
     3     1     2   ar
     4     2     3   ar
     5     3     4   ar
     6     4     5   ar
     7     5     6   ar
     8     6     7    1
     9     7     8    1
    10     8     9    2
    11     8    10    2
    12     8    11    1
    13    11    12   ar
    14    12    13   ar
    15    13    14   ar
    16    14    15   ar
    17    15    16   ar
    18    15    17    1
    19    17    18    2
    20    17    19   am
    21    19    20    1
    22    20    21    1
    23    21    22    1
    24    22    23   ar
    25    23    24   ar
    26    24    25   ar
    27    25    26   ar
    28    24    27    1
    29    27    28   ar
    30    28    29   ar
    31    29    30   ar
    32    30    31   ar
    33    31    32   ar
    34    32    33   ar
    35    33    34   ar
    36    34    35   ar
    37     6     1   ar
    38    16    11   ar
    39    26    22   ar
    40    35    27   ar
    41    33     4    1
    42    35    30   ar
    43     7    36    1
    44    19    37    1
@<TRIPOS>MOLECULE
*****
 39 44 0 0 0
SMALL
GASTEIGER

@<TRIPOS>ATOM
      1 C         142.9760  137.5634  157.1181 C.ar    1  UNL1        0.2400
      2 N         143.1587  136.5070  158.1673 N.ar    1  UNL1       -0.2090
      3 C         142.8250  136.8062  159.5989 C.ar    1  UNL1        0.1021
      4 C         142.2878  138.0565  160.3258 C.ar    1  UNL1        0.0221
      5 C         142.4587  138.2646  158.8502 C.ar    1  UNL1        0.0222
      6 C         142.4597  138.9188  157.5004 C.ar    1  UNL1        0.1178
      7 N         142.2906  139.9484  156.4227 N.pl3   1  UNL1       -0.2104
      8 S         141.9698  141.2417  155.7339 S.O2    1  UNL1        0.0737
      9 O         142.4776  140.1760  154.8086 O.2     1  UNL1       -0.1499
     10 O         142.0570  141.6788  154.3017 O.2     1  UNL1       -0.1499
     11 C         141.4065  142.9750  155.6288 C.ar    1  UNL1        0.1253
     12 C         141.4507  143.5226  154.2330 C.ar    1  UNL1        0.0202
     13 C         141.0210  144.9349  153.9675 C.ar    1  UNL1        0.0015
     14 C         140.5471  145.7998  155.0978 C.ar    1  UNL1        0.0046
     15 C         140.5028  145.2522  156.4935 C.ar    1  UNL1        0.0547
     16 C         140.9325  143.8399  156.7590 C.ar    1  UNL1        0.0247
     17 C         140.0230  146.1479  157.5969 C.2     1  UNL1        0.2459
     18 O         139.7374  147.3876  156.8021 O.2     1  UNL1       -0.2701
     19 N         139.6371  146.6355  158.9619 N.am    1  UNL1       -0.2989
     20 C         139.3870  146.6622  160.4407 C.3     1  UNL1        0.1161
     21 C         139.2998  146.2251  161.8730 C.3     1  UNL1        0.1487
     22 N         139.3850  145.3715  163.1035 N.ar    1  UNL1       -0.2476
     23 C         139.6334  144.1940  163.9989 C.ar    1  UNL1        0.0982
     24 C         140.0179  142.8202  164.4623 C.ar    1  UNL1        0.0573
     25 C         139.5252  143.7871  165.4978 C.ar    1  UNL1        0.1231
     26 N         139.2044  145.0804  164.8090 N.ar    1  UNL1       -0.1676
     27 C         140.4970  141.3989  164.4433 C.ar    1  UNL1        0.0875
     28 C         140.2937  141.2844  165.9250 C.ar    1  UNL1        0.1181
     29 N         140.6898  139.8989  166.3415 N.ar    1  UNL1       -0.2249
     30 C         141.1378  139.1571  165.1173 C.ar    1  UNL1        0.1478
     31 C         141.7787  137.6548  164.2726 C.ar    1  UNL1        0.0374
     32 C         142.1282  137.3001  162.8577 C.ar    1  UNL1        0.0046
     33 C         141.9654  138.3172  161.7673 C.ar    1  UNL1        0.0192
     34 C         141.5265  139.0184  163.0187 C.ar    1  UNL1        0.0814
     35 N         141.0187  140.0841  163.9441 N.ar    1  UNL1       -0.2887
     36 H         142.5932  139.4225  155.6473 H       1  UNL1        0.1739
     37 H         139.3663  147.5545  158.7351 H       1  UNL1        0.1498
     38 C         144.0970  136.0351  155.3412 C.3     1  UNL1        0.2543
     39 O         143.3096  137.2641  155.6866 O.3     1  UNL1       -0.4553
@<TRIPOS>BOND
     1    38    39    1
     2    39     1    1
     3     1     2   ar
     4     2     3   ar
     5     3     4   ar
     6     4     5   ar
     7     5     6   ar
     8     6     7    1
     9     7     8    1
    10     8     9    2
    11     8    10    2
    12     8    11    1
    13    11    12   ar
    14    12    13   ar
    15    13    14   ar
    16    14    15   ar
    17    15    16   ar
    18    15    17    1
    19    17    18    2
    20    17    19   am
    21    19    20    1
    22    20    21    1
    23    21    22    1
    24    22    23   ar
    25    23    24   ar
    26    24    25   ar
    27    25    26   ar
    28    24    27    1
    29    27    28   ar
    30    28    29   ar
    31    29    30   ar
    32    30    31   ar
    33    31    32   ar
    34    32    33   ar
    35    33    34   ar
    36    34    35   ar
    37     6     1   ar
    38    16    11   ar
    39    26    22   ar
    40    35    27   ar
    41    33     4    1
    42    35    30   ar
    43     7    36    1
    44    19    37    1
@<TRIPOS>MOLECULE
*****
 39 44 0 0 0
SMALL
GASTEIGER

@<TRIPOS>ATOM
      1 C         143.0165  136.7541  156.3754 C.ar    1  UNL1        0.2400
      2 N         143.2150  135.9072  157.5974 N.ar    1  UNL1       -0.2090
      3 C         142.9746  136.4879  158.9595 C.ar    1  UNL1        0.1021
      4 C         142.5299  137.8784  159.4584 C.ar    1  UNL1        0.0221
      5 C         142.6259  137.7951  157.9638 C.ar    1  UNL1        0.0222
      6 C         142.5776  138.1816  156.5153 C.ar    1  UNL1        0.1178
      7 N         142.3900  138.9962  155.2698 N.pl3   1  UNL1       -0.2104
      8 S         142.0835  140.1505  154.3623 S.O2    1  UNL1        0.0737
      9 O         142.4951  138.9050  153.6349 O.2     1  UNL1       -0.1499
     10 O         142.1077  140.3042  152.8704 O.2     1  UNL1       -0.1499
     11 C         141.5855  141.8589  153.9543 C.ar    1  UNL1        0.1253
     12 C         141.5734  142.1299  152.4791 C.ar    1  UNL1        0.0202
     13 C         141.1868  143.4865  151.9690 C.ar    1  UNL1        0.0015
     14 C         140.8124  144.5720  152.9341 C.ar    1  UNL1        0.0046
     15 C         140.8245  144.3010  154.4093 C.ar    1  UNL1        0.0547
     16 C         141.2111  142.9444  154.9194 C.ar    1  UNL1        0.0247
     17 C         140.4439  145.4120  155.3424 C.2     1  UNL1        0.2459
     18 O         140.1644  146.4919  154.3396 O.2     1  UNL1       -0.2701
     19 N         140.1552  146.1675  156.6056 N.am    1  UNL1       -0.2989
     20 C         139.9898  146.4857  158.0622 C.3     1  UNL1        0.1161
     21 C         139.9656  146.3320  159.5542 C.3     1  UNL1        0.1487
     22 N         140.0852  145.7231  160.9198 N.ar    1  UNL1       -0.2476
     23 C         140.3357  144.7250  162.0111 C.ar    1  UNL1        0.0982
     24 C         140.6898  143.4460  162.7100 C.ar    1  UNL1        0.0573
     25 C         140.2955  144.6146  163.5636 C.ar    1  UNL1        0.1231
     26 N         139.9890  145.7690  162.6561 N.ar    1  UNL1       -0.1676
     27 C         141.1094  142.0243  162.9406 C.ar    1  UNL1        0.0875
     28 C         140.9851  142.2023  164.4248 C.ar    1  UNL1        0.1181
     29 N         141.3477  140.9023  165.0794 N.ar    1  UNL1       -0.2249
     30 C         141.6960  139.9210  163.9999 C.ar    1  UNL1        0.1478
     31 C         142.2273  138.2558  163.4288 C.ar    1  UNL1        0.0374
     32 C         142.4823  137.6230  162.0929 C.ar    1  UNL1        0.0046
     33 C         142.2997  138.4227  160.8371 C.ar    1  UNL1        0.0192
     34 C         141.9604  139.3688  161.9505 C.ar    1  UNL1        0.0814
     35 N         141.5487  140.6144  162.6780 N.ar    1  UNL1       -0.2887
     36 H         142.6271  138.3188  154.5959 H       1  UNL1        0.1739
     37 H         139.9094  147.0395  156.2204 H       1  UNL1        0.1498
     38 C         142.1763  135.3876  154.3316 C.3     1  UNL1        0.2543
     39 O         143.2569  136.1734  155.0134 O.3     1  UNL1       -0.4553
@<TRIPOS>BOND
     1    38    39    1
     2    39     1    1
     3     1     2   ar
     4     2     3   ar
     5     3     4   ar
     6     4     5   ar
     7     5     6   ar
     8     6     7    1
     9     7     8    1
    10     8     9    2
    11     8    10    2
    12     8    11    1
    13    11    12   ar
    14    12    13   ar
    15    13    14   ar
    16    14    15   ar
    17    15    16   ar
    18    15    17    1
    19    17    18    2
    20    17    19   am
    21    19    20    1
    22    20    21    1
    23    21    22    1
    24    22    23   ar
    25    23    24   ar
    26    24    25   ar
    27    25    26   ar
    28    24    27    1
    29    27    28   ar
    30    28    29   ar
    31    29    30   ar
    32    30    31   ar
    33    31    32   ar
    34    32    33   ar
    35    33    34   ar
    36    34    35   ar
    37     6     1   ar
    38    16    11   ar
    39    26    22   ar
    40    35    27   ar
    41    33     4    1
    42    35    30   ar
    43     7    36    1
    44    19    37    1
@<TRIPOS>MOLECULE
*****
 39 44 0 0 0
SMALL
GASTEIGER

@<TRIPOS>ATOM
      1 C         143.8168  140.4105  161.8786 C.ar    1  UNL1        0.2400
      2 N         144.3267  139.0316  162.1766 N.ar    1  UNL1       -0.2090
      3 C         144.0845  137.9159  161.2036 C.ar    1  UNL1        0.1021
      4 C         143.3696  137.8326  159.8389 C.ar    1  UNL1        0.0221
      5 C         143.3410  139.2098  160.4325 C.ar    1  UNL1        0.0222
      6 C         143.0648  140.6737  160.6078 C.ar    1  UNL1        0.1178
      7 N         142.5710  142.0657  160.3457 N.pl3   1  UNL1       -0.2104
      8 S         141.9131  143.2348  159.6747 S.O2    1  UNL1        0.0737
      9 O         142.5397  143.5722  160.9950 O.2     1  UNL1       -0.1499
     10 O         141.7586  144.6749  160.0644 O.2     1  UNL1       -0.1499
     11 C         140.9850  144.0889  158.3548 C.ar    1  UNL1        0.1253
     12 C         140.7689  145.5459  158.6383 C.ar    1  UNL1        0.0202
     13 C         140.0229  146.3986  157.6553 C.ar    1  UNL1        0.0015
     14 C         139.4929  145.7943  156.3888 C.ar    1  UNL1        0.0046
     15 C         139.7090  144.3373  156.1053 C.ar    1  UNL1        0.0547
     16 C         140.4550  143.4846  157.0883 C.ar    1  UNL1        0.0247
     17 C         139.1640  143.7699  154.8282 C.2     1  UNL1        0.2459
     18 O         138.5409  145.0078  154.2542 O.2     1  UNL1       -0.2701
     19 N         138.8239  142.7951  153.7401 N.am    1  UNL1       -0.2989
     20 C         138.7259  141.5184  152.9588 C.3     1  UNL1        0.1161
     21 C         138.8804  140.0781  152.5690 C.3     1  UNL1        0.1487
     22 N         139.2707  138.6305  152.6130 N.ar    1  UNL1       -0.2476
     23 C         139.8546  137.3323  153.0861 C.ar    1  UNL1        0.0982
     24 C         140.5686  136.3242  153.9368 C.ar    1  UNL1        0.0573
     25 C         139.9890  135.8473  152.6381 C.ar    1  UNL1        0.1231
     26 N         139.3311  137.0164  151.9671 N.ar    1  UNL1       -0.1676
     27 C         141.3356  135.7154  155.0732 C.ar    1  UNL1        0.0875
     28 C         141.3135  134.3740  154.4023 C.ar    1  UNL1        0.1181
     29 N         142.0365  133.4016  155.2863 N.ar    1  UNL1       -0.2249
     30 C         142.5054  134.1420  156.5036 C.ar    1  UNL1        0.1478
     31 C         143.3628  134.2170  158.1285 C.ar    1  UNL1        0.0374
     32 C         143.6340  135.2937  159.1370 C.ar    1  UNL1        0.0046
     33 C         143.1476  136.6913  158.8913 C.ar    1  UNL1        0.0192
     34 C         142.6989  135.9094  157.6923 C.ar    1  UNL1        0.0814
     35 N         142.0723  135.5720  156.3719 N.ar    1  UNL1       -0.2887
     36 H         142.8982  142.5099  161.1611 H       1  UNL1        0.1739
     37 H         138.3416  143.3970  153.1282 H       1  UNL1        0.1498
     38 C         145.4162  141.7049  163.4651 C.3     1  UNL1        0.2543
     39 O         144.0591  141.5261  162.8517 O.3     1  UNL1       -0.4553
@<TRIPOS>BOND
     1    38    39    1
     2    39     1    1
     3     1     2   ar
     4     2     3   ar
     5     3     4   ar
     6     4     5   ar
     7     5     6   ar
     8     6     7    1
     9     7     8    1
    10     8     9    2
    11     8    10    2
    12     8    11    1
    13    11    12   ar
    14    12    13   ar
    15    13    14   ar
    16    14    15   ar
    17    15    16   ar
    18    15    17    1
    19    17    18    2
    20    17    19   am
    21    19    20    1
    22    20    21    1
    23    21    22    1
    24    22    23   ar
    25    23    24   ar
    26    24    25   ar
    27    25    26   ar
    28    24    27    1
    29    27    28   ar
    30    28    29   ar
    31    29    30   ar
    32    30    31   ar
    33    31    32   ar
    34    32    33   ar
    35    33    34   ar
    36    34    35   ar
    37     6     1   ar
    38    16    11   ar
    39    26    22   ar
    40    35    27   ar
    41    33     4    1
    42    35    30   ar
    43     7    36    1
    44    19    37    1
@<TRIPOS>MOLECULE
*****
 39 44 0 0 0
SMALL
GASTEIGER

@<TRIPOS>ATOM
      1 C         142.9984  143.2847  161.6910 C.ar    1  UNL1        0.2400
      2 N         143.4733  142.1604  162.5630 N.ar    1  UNL1       -0.2090
      3 C         143.5298  140.7630  162.0205 C.ar    1  UNL1        0.1021
      4 C         143.1853  140.1397  160.6519 C.ar    1  UNL1        0.0221
      5 C         142.9516  141.6207  160.6970 C.ar    1  UNL1        0.0222
      6 C         142.5801  143.0118  160.2766 C.ar    1  UNL1        0.1178
      7 N         142.1112  144.1624  159.4362 N.pl3   1  UNL1       -0.2104
      8 S         141.5956  144.9476  158.2668 S.O2    1  UNL1        0.0737
      9 O         141.8555  145.7824  159.4856 O.2     1  UNL1       -0.1499
     10 O         141.2888  146.4035  158.0766 O.2     1  UNL1       -0.1499
     11 C         140.9950  145.1881  156.5596 C.ar    1  UNL1        0.1253
     12 C         140.6547  146.6165  156.2533 C.ar    1  UNL1        0.0202
     13 C         140.1455  146.9910  154.8930 C.ar    1  UNL1        0.0015
     14 C         139.9765  145.9371  153.8391 C.ar    1  UNL1        0.0046
     15 C         140.3168  144.5087  154.1454 C.ar    1  UNL1        0.0547
     16 C         140.8260  144.1342  155.5057 C.ar    1  UNL1        0.0247
     17 C         140.1344  143.4839  153.0654 C.2     1  UNL1        0.2459
     18 O         139.6253  144.3702  151.9675 O.2     1  UNL1       -0.2701
     19 N         140.1195  142.1674  152.3467 N.am    1  UNL1       -0.2989
     20 C         140.2738  140.7017  152.0674 C.3     1  UNL1        0.1161
     21 C         140.5806  139.2457  152.2576 C.3     1  UNL1        0.1487
     22 N         141.0066  137.9573  152.8967 N.ar    1  UNL1       -0.2476
     23 C         141.5057  136.9761  153.9156 C.ar    1  UNL1        0.0982
     24 C         142.0237  136.4082  155.2036 C.ar    1  UNL1        0.0573
     25 C         141.8096  135.4564  154.0643 C.ar    1  UNL1        0.1231
     26 N         141.2940  136.2416  152.8949 N.ar    1  UNL1       -0.1676
     27 C         142.5046  136.3154  156.6215 C.ar    1  UNL1        0.0875
     28 C         142.7072  134.8357  156.4822 C.ar    1  UNL1        0.1181
     29 N         143.2240  134.3135  157.7899 N.ar    1  UNL1       -0.2249
     30 C         143.3408  135.4704  158.7374 C.ar    1  UNL1        0.1478
     31 C         143.7579  136.1907  160.3770 C.ar    1  UNL1        0.0374
     32 C         143.7221  137.5672  160.9719 C.ar    1  UNL1        0.0046
     33 C         143.2560  138.7294  160.1460 C.ar    1  UNL1        0.0192
     34 C         143.1560  137.5424  159.2342 C.ar    1  UNL1        0.0814
     35 N         142.8962  136.7077  158.0153 N.ar    1  UNL1       -0.2887
     36 H         142.2042  144.8906  160.0921 H       1  UNL1        0.1739
     37 H         139.7822  142.4647  151.4709 H       1  UNL1        0.1498
     38 C         141.8125  145.0931  163.1308 C.3     1  UNL1        0.2543
     39 O         142.9420  144.6821  162.2335 O.3     1  UNL1       -0.4553
@<TRIPOS>BOND
     1    38    39    1
     2    39     1    1
     3     1     2   ar
     4     2     3   ar
     5     3     4   ar
     6     4     5   ar
     7     5     6   ar
     8     6     7    1
     9     7     8    1
    10     8     9    2
    11     8    10    2
    12     8    11    1
    13    11    12   ar
    14    12    13   ar
    15    13    14   ar
    16    14    15   ar
    17    15    16   ar
    18    15    17    1
    19    17    18    2
    20    17    19   am
    21    19    20    1
    22    20    21    1
    23    21    22    1
    24    22    23   ar
    25    23    24   ar
    26    24    25   ar
    27    25    26   ar
    28    24    27    1
    29    27    28   ar
    30    28    29   ar
    31    29    30   ar
    32    30    31   ar
    33    31    32   ar
    34    32    33   ar
    35    33    34   ar
    36    34    35   ar
    37     6     1   ar
    38    16    11   ar
    39    26    22   ar
    40    35    27   ar
    41    33     4    1
    42    35    30   ar
    43     7    36    1
    44    19    37    1
