@<TRIPOS>MOLECULE
*****
 38 41 0 0 0
SMALL
GASTEIGER

@<TRIPOS>ATOM
      1 O         140.8572  140.4376  162.9981 O.2     1  UNL1       -0.2512
      2 C         139.9625  139.3164  163.4370 C.2     1  UNL1        0.3199
      3 N         139.3844  139.3162  164.8211 N.am    1  UNL1       -0.2819
      4 N         139.6459  138.1956  162.4918 N.am    1  UNL1       -0.1693
      5 H         138.7973  138.5803  165.1092 H       1  UNL1        0.1516
      6 H         139.0587  137.4597  162.7799 H       1  UNL1        0.1781
      7 S         140.2240  138.1959  161.1076 S.O2    1  UNL1        0.0768
      8 O         141.4837  137.5741  161.6335 O.2     1  UNL1       -0.1498
      9 O         138.9644  138.8177  160.5817 O.2     1  UNL1       -0.1498
     10 C         140.8021  138.1962  159.7235 C.ar    1  UNL1        0.1255
     11 C         139.9495  138.5929  158.5548 C.ar    1  UNL1        0.0233
     12 C         140.5276  138.5932  157.1706 C.ar    1  UNL1        0.0383
     13 C         141.9581  138.1969  156.9552 C.ar    1  UNL1        0.1386
     14 C         142.8107  137.8002  158.1239 C.ar    1  UNL1        0.0383
     15 C         142.2326  137.7999  159.5080 C.ar    1  UNL1        0.0233
     16 O         142.5362  138.1972  155.5710 O.3     1  UNL1       -0.4754
     17 C         143.1306  136.9412  155.0063 C.3     1  UNL1        0.2068
     18 C         142.2448  135.7798  154.6649 C.3     1  UNL1        0.0646
     19 C         141.9218  134.7509  155.7076 C.3     1  UNL1        0.0759
     20 N         142.9846  133.8045  156.1819 N.3     1  UNL1       -0.2726
     21 C         143.4200  132.6663  155.3073 C.3     1  UNL1        0.0721
     22 C         144.4827  131.7200  155.7817 C.3     1  UNL1        0.0174
     23 C         145.1101  131.9119  157.1306 C.3     1  UNL1        0.0029
     24 C         144.6748  133.0502  158.0051 C.3     1  UNL1        0.0174
     25 C         143.6120  133.9965  157.5308 C.3     1  UNL1        0.0721
     26 C         139.7010  140.4370  165.7663 C.3     1  UNL1        0.1182
     27 C         140.4281  140.1548  167.0477 C.ar    1  UNL1       -0.0003
     28 C         139.6915  140.2001  168.3536 C.ar    1  UNL1       -0.0024
     29 C         140.4186  139.9179  169.6349 C.ar    1  UNL1       -0.0003
     30 C         141.8821  139.5904  169.6103 C.ar    1  UNL1       -0.0000
     31 C         142.6187  139.5451  168.3044 C.ar    1  UNL1       -0.0003
     32 C         141.8917  139.8273  167.0231 C.ar    1  UNL1       -0.0024
     33 C         139.2906  141.8401  165.4303 C.ar    1  UNL1       -0.0003
     34 C         137.9767  142.0954  164.7531 C.ar    1  UNL1       -0.0024
     35 C         137.5663  143.4985  164.4170 C.ar    1  UNL1       -0.0003
     36 C         138.4697  144.6462  164.7581 C.ar    1  UNL1       -0.0000
     37 C         139.7836  144.3910  165.4353 C.ar    1  UNL1       -0.0003
     38 C         140.1940  142.9879  165.7714 C.ar    1  UNL1       -0.0024
@<TRIPOS>BOND
     1     1     2    2
     2     2     3   am
     3     3    26    1
     4    26    27    1
     5    27    28   ar
     6    28    29   ar
     7    29    30   ar
     8    30    31   ar
     9    31    32   ar
    10    26    33    1
    11    33    34   ar
    12    34    35   ar
    13    35    36   ar
    14    36    37   ar
    15    37    38   ar
    16     2     4   am
    17     4     7    1
    18     7     8    2
    19     7     9    2
    20     7    10    1
    21    10    11   ar
    22    11    12   ar
    23    12    13   ar
    24    13    16    1
    25    16    17    1
    26    17    18    1
    27    18    19    1
    28    19    20    1
    29    20    21    1
    30    21    22    1
    31    22    23    1
    32    23    24    1
    33    24    25    1
    34    13    14   ar
    35    14    15   ar
    36    32    27   ar
    37    38    33   ar
    38    15    10   ar
    39    25    20    1
    40     3     5    1
    41     4     6    1
@<TRIPOS>MOLECULE
*****
 38 41 0 0 0
SMALL
GASTEIGER

@<TRIPOS>ATOM
      1 O         140.6173  141.8291  163.3114 O.2     1  UNL1       -0.2512
      2 C         139.5940  142.7496  163.9077 C.2     1  UNL1        0.3199
      3 N         139.1887  142.5914  165.3432 N.am    1  UNL1       -0.2819
      4 N         138.9760  143.8284  163.0685 N.am    1  UNL1       -0.1693
      5 H         138.5171  143.1956  165.7346 H       1  UNL1        0.1516
      6 H         138.3043  144.4326  163.4598 H       1  UNL1        0.1781
      7 S         139.3813  143.9866  161.6329 S.O2    1  UNL1        0.0768
      8 O         138.1720  143.2086  161.2057 O.2     1  UNL1       -0.1498
      9 O         140.5905  144.7645  162.0601 O.2     1  UNL1       -0.1498
     10 C         139.7866  144.1448  160.1974 C.ar    1  UNL1        0.1255
     11 C         140.6322  145.3116  159.7811 C.ar    1  UNL1        0.0233
     12 C         141.0376  145.4699  158.3456 C.ar    1  UNL1        0.0383
     13 C         140.5973  144.4612  157.3264 C.ar    1  UNL1        0.1386
     14 C         139.7516  143.2943  157.7427 C.ar    1  UNL1        0.0383
     15 C         139.3463  143.1361  159.1782 C.ar    1  UNL1        0.0233
     16 O         141.0026  144.6194  155.8909 O.3     1  UNL1       -0.4754
     17 C         141.0906  145.9878  155.2829 C.3     1  UNL1        0.2068
     18 C         139.8594  146.6444  154.7323 C.3     1  UNL1        0.0646
     19 C         139.1575  147.7067  155.5253 C.3     1  UNL1        0.0759
     20 N         139.1149  149.1173  155.0168 N.3     1  UNL1       -0.2726
     21 C         139.6581  149.4409  153.6566 C.3     1  UNL1        0.0721
     22 C         139.6155  150.8514  153.1482 C.3     1  UNL1        0.0174
     23 C         139.0298  151.9383  153.9999 C.3     1  UNL1        0.0029
     24 C         138.4866  151.6147  155.3601 C.3     1  UNL1        0.0174
     25 C         138.5291  150.2042  155.8685 C.3     1  UNL1        0.0721
     26 C         139.8067  141.5127  166.1825 C.3     1  UNL1        0.1182
     27 C         139.3708  140.0875  166.0121 C.ar    1  UNL1       -0.0003
     28 C         140.1075  139.1858  165.0665 C.ar    1  UNL1       -0.0024
     29 C         139.6715  137.7608  164.8961 C.ar    1  UNL1       -0.0003
     30 C         138.4990  137.2373  165.6714 C.ar    1  UNL1       -0.0000
     31 C         137.7623  138.1390  166.6170 C.ar    1  UNL1       -0.0003
     32 C         138.1982  139.5641  166.7874 C.ar    1  UNL1       -0.0024
     33 C         140.8605  141.8590  167.1921 C.ar    1  UNL1       -0.0003
     34 C         142.2973  141.9581  166.7727 C.ar    1  UNL1       -0.0024
     35 C         143.3512  142.3044  167.7824 C.ar    1  UNL1       -0.0003
     36 C         142.9683  142.5517  169.2115 C.ar    1  UNL1       -0.0000
     37 C         141.5315  142.4527  169.6309 C.ar    1  UNL1       -0.0003
     38 C         140.4777  142.1064  168.6212 C.ar    1  UNL1       -0.0024
@<TRIPOS>BOND
     1     1     2    2
     2     2     3   am
     3     3    26    1
     4    26    27    1
     5    27    28   ar
     6    28    29   ar
     7    29    30   ar
     8    30    31   ar
     9    31    32   ar
    10    26    33    1
    11    33    34   ar
    12    34    35   ar
    13    35    36   ar
    14    36    37   ar
    15    37    38   ar
    16     2     4   am
    17     4     7    1
    18     7     8    2
    19     7     9    2
    20     7    10    1
    21    10    11   ar
    22    11    12   ar
    23    12    13   ar
    24    13    16    1
    25    16    17    1
    26    17    18    1
    27    18    19    1
    28    19    20    1
    29    20    21    1
    30    21    22    1
    31    22    23    1
    32    23    24    1
    33    24    25    1
    34    13    14   ar
    35    14    15   ar
    36    32    27   ar
    37    38    33   ar
    38    15    10   ar
    39    25    20    1
    40     3     5    1
    41     4     6    1
@<TRIPOS>MOLECULE
*****
 38 41 0 0 0
SMALL
GASTEIGER

@<TRIPOS>ATOM
      1 O         137.4070  140.3917  157.4549 O.2     1  UNL1       -0.2512
      2 C         137.0135  141.7607  156.9845 C.2     1  UNL1        0.3199
      3 N         135.8757  141.9243  156.0208 N.am    1  UNL1       -0.2819
      4 N         137.7577  142.9660  157.4778 N.am    1  UNL1       -0.1693
      5 H         135.6175  142.8228  155.7121 H       1  UNL1        0.1516
      6 H         137.4995  143.8644  157.1691 H       1  UNL1        0.1781
      7 S         138.8955  142.8023  158.4416 S.O2    1  UNL1        0.0768
      8 O         137.9323  142.8661  159.5896 O.2     1  UNL1       -0.1498
      9 O         139.8587  142.7385  157.2935 O.2     1  UNL1       -0.1498
     10 C         140.0333  142.6386  159.4052 C.ar    1  UNL1        0.1255
     11 C         141.3834  143.2022  159.0743 C.ar    1  UNL1        0.0233
     12 C         142.5212  143.0385  160.0380 C.ar    1  UNL1        0.0383
     13 C         142.3089  142.3113  161.3326 C.ar    1  UNL1        0.1386
     14 C         140.9587  141.7478  161.6635 C.ar    1  UNL1        0.0383
     15 C         139.8209  141.9114  160.6999 C.ar    1  UNL1        0.0233
     16 O         143.4466  142.1477  162.2963 O.3     1  UNL1       -0.4754
     17 C         144.4217  143.2686  162.5027 C.3     1  UNL1        0.2068
     18 C         143.9296  144.6243  162.9151 C.3     1  UNL1        0.0646
     19 C         142.9305  144.7535  164.0264 C.3     1  UNL1        0.0759
     20 N         141.4619  144.7184  163.7226 N.3     1  UNL1       -0.2726
     21 C         140.5257  143.9776  164.6306 C.3     1  UNL1        0.0721
     22 C         139.0573  143.9425  164.3267 C.3     1  UNL1        0.0174
     23 C         138.5250  144.6483  163.1149 C.3     1  UNL1        0.0029
     24 C         139.4613  145.3891  162.2069 C.3     1  UNL1        0.0174
     25 C         140.9297  145.4242  162.5107 C.3     1  UNL1        0.0721
     26 C         135.1315  140.7190  155.5275 C.3     1  UNL1        0.1182
     27 C         133.7949  140.3713  156.1130 C.ar    1  UNL1       -0.0003
     28 C         132.5547  141.0427  155.6022 C.ar    1  UNL1       -0.0024
     29 C         131.2183  140.6950  156.1877 C.ar    1  UNL1       -0.0003
     30 C         131.1220  139.6758  157.2841 C.ar    1  UNL1       -0.0000
     31 C         132.3622  139.0044  157.7949 C.ar    1  UNL1       -0.0003
     32 C         133.6987  139.3521  157.2094 C.ar    1  UNL1       -0.0024
     33 C         135.7237  139.8615  154.4486 C.ar    1  UNL1       -0.0003
     34 C         136.2173  138.4826  154.7728 C.ar    1  UNL1       -0.0024
     35 C         136.8095  137.6251  153.6939 C.ar    1  UNL1       -0.0003
     36 C         136.9082  138.1464  152.2909 C.ar    1  UNL1       -0.0000
     37 C         136.4146  139.5253  151.9668 C.ar    1  UNL1       -0.0003
     38 C         135.8224  140.3828  153.0456 C.ar    1  UNL1       -0.0024
@<TRIPOS>BOND
     1     1     2    2
     2     2     3   am
     3     3    26    1
     4    26    27    1
     5    27    28   ar
     6    28    29   ar
     7    29    30   ar
     8    30    31   ar
     9    31    32   ar
    10    26    33    1
    11    33    34   ar
    12    34    35   ar
    13    35    36   ar
    14    36    37   ar
    15    37    38   ar
    16     2     4   am
    17     4     7    1
    18     7     8    2
    19     7     9    2
    20     7    10    1
    21    10    11   ar
    22    11    12   ar
    23    12    13   ar
    24    13    16    1
    25    16    17    1
    26    17    18    1
    27    18    19    1
    28    19    20    1
    29    20    21    1
    30    21    22    1
    31    22    23    1
    32    23    24    1
    33    24    25    1
    34    13    14   ar
    35    14    15   ar
    36    32    27   ar
    37    38    33   ar
    38    15    10   ar
    39    25    20    1
    40     3     5    1
    41     4     6    1
@<TRIPOS>MOLECULE
*****
 38 41 0 0 0
SMALL
GASTEIGER

@<TRIPOS>ATOM
      1 O         141.1978  141.9140  163.7612 O.2     1  UNL1       -0.2512
      2 C         142.6566  141.5646  163.7647 C.2     1  UNL1        0.3199
      3 N         143.2282  140.7424  164.8815 N.am    1  UNL1       -0.2819
      4 N         143.5437  142.0374  162.6514 N.am    1  UNL1       -0.1693
      5 H         144.1856  140.5130  164.8837 H       1  UNL1        0.1516
      6 H         144.5011  141.8081  162.6536 H       1  UNL1        0.1781
      7 S         142.9720  142.8597  161.5346 S.O2    1  UNL1        0.0768
      8 O         143.3658  144.1141  162.2566 O.2     1  UNL1       -0.1498
      9 O         142.5782  141.6053  160.8126 O.2     1  UNL1       -0.1498
     10 C         142.4004  143.6819  160.4178 C.ar    1  UNL1        0.1255
     11 C         141.2963  144.6587  160.6949 C.ar    1  UNL1        0.0233
     12 C         140.7246  145.4810  159.5781 C.ar    1  UNL1        0.0383
     13 C         141.2570  145.3263  158.1843 C.ar    1  UNL1        0.1386
     14 C         142.3611  144.3494  157.9073 C.ar    1  UNL1        0.0383
     15 C         142.9327  143.5272  159.0241 C.ar    1  UNL1        0.0233
     16 O         140.6853  146.1485  157.0676 O.3     1  UNL1       -0.4754
     17 C         139.4787  145.6629  156.3205 C.3     1  UNL1        0.2068
     18 C         139.0195  146.3838  155.0877 C.3     1  UNL1        0.0646
     19 C         139.8931  147.4300  154.4615 C.3     1  UNL1        0.0759
     20 N         139.5175  148.8788  154.5612 N.3     1  UNL1       -0.2726
     21 C         139.8845  149.8265  153.4580 C.3     1  UNL1        0.0721
     22 C         139.5089  151.2752  153.5578 C.3     1  UNL1        0.0174
     23 C         138.7662  151.7763  154.7609 C.3     1  UNL1        0.0029
     24 C         138.3992  150.8286  155.8642 C.3     1  UNL1        0.0174
     25 C         138.7749  149.3799  155.7643 C.3     1  UNL1        0.0721
     26 C         142.3411  140.2695  165.9948 C.3     1  UNL1        0.1182
     27 C         141.1617  139.3930  165.6933 C.ar    1  UNL1       -0.0003
     28 C         139.7974  139.7761  166.1849 C.ar    1  UNL1       -0.0024
     29 C         138.6181  138.8996  165.8833 C.ar    1  UNL1       -0.0003
     30 C         138.8031  137.6400  165.0902 C.ar    1  UNL1       -0.0000
     31 C         140.1675  137.2568  164.5986 C.ar    1  UNL1       -0.0003
     32 C         141.3468  138.1334  164.9001 C.ar    1  UNL1       -0.0024
     33 C         142.6333  140.6732  167.4095 C.ar    1  UNL1       -0.0003
     34 C         143.0144  142.0900  167.7218 C.ar    1  UNL1       -0.0024
     35 C         143.3066  142.4936  169.1366 C.ar    1  UNL1       -0.0003
     36 C         143.2177  141.4805  170.2392 C.ar    1  UNL1       -0.0000
     37 C         142.8366  140.0637  169.9269 C.ar    1  UNL1       -0.0003
     38 C         142.5444  139.6601  168.5122 C.ar    1  UNL1       -0.0024
@<TRIPOS>BOND
     1     1     2    2
     2     2     3   am
     3     3    26    1
     4    26    27    1
     5    27    28   ar
     6    28    29   ar
     7    29    30   ar
     8    30    31   ar
     9    31    32   ar
    10    26    33    1
    11    33    34   ar
    12    34    35   ar
    13    35    36   ar
    14    36    37   ar
    15    37    38   ar
    16     2     4   am
    17     4     7    1
    18     7     8    2
    19     7     9    2
    20     7    10    1
    21    10    11   ar
    22    11    12   ar
    23    12    13   ar
    24    13    16    1
    25    16    17    1
    26    17    18    1
    27    18    19    1
    28    19    20    1
    29    20    21    1
    30    21    22    1
    31    22    23    1
    32    23    24    1
    33    24    25    1
    34    13    14   ar
    35    14    15   ar
    36    32    27   ar
    37    38    33   ar
    38    15    10   ar
    39    25    20    1
    40     3     5    1
    41     4     6    1
@<TRIPOS>MOLECULE
*****
 38 41 0 0 0
SMALL
GASTEIGER

@<TRIPOS>ATOM
      1 O         141.2367  141.9079  163.7102 O.2     1  UNL1       -0.2512
      2 C         142.6926  141.5465  163.7192 C.2     1  UNL1        0.3199
      3 N         143.2547  140.7257  164.8418 N.am    1  UNL1       -0.2819
      4 N         143.5862  142.0059  162.6055 N.am    1  UNL1       -0.1693
      5 H         144.2102  140.4886  164.8477 H       1  UNL1        0.1516
      6 H         144.5417  141.7687  162.6113 H       1  UNL1        0.1781
      7 S         143.0240  142.8267  161.4828 S.O2    1  UNL1        0.0768
      8 O         143.4567  144.0807  162.1829 O.2     1  UNL1       -0.1498
      9 O         142.5914  141.5727  160.7827 O.2     1  UNL1       -0.1498
     10 C         142.4619  143.6474  160.3602 C.ar    1  UNL1        0.1255
     11 C         141.3990  144.6689  160.6372 C.ar    1  UNL1        0.0233
     12 C         140.8367  145.4897  159.5145 C.ar    1  UNL1        0.0383
     13 C         141.3374  145.2889  158.1149 C.ar    1  UNL1        0.1386
     14 C         142.4004  144.2674  157.8379 C.ar    1  UNL1        0.0383
     15 C         142.9626  143.4467  158.9605 C.ar    1  UNL1        0.0233
     16 O         140.7753  146.1097  156.9923 O.3     1  UNL1       -0.4754
     17 C         139.5092  145.6816  156.3113 C.3     1  UNL1        0.2068
     18 C         139.0163  146.4274  155.1067 C.3     1  UNL1        0.0646
     19 C         139.8731  147.4856  154.4774 C.3     1  UNL1        0.0759
     20 N         139.4741  148.9285  154.5726 N.3     1  UNL1       -0.2726
     21 C         138.7352  149.4241  155.7802 C.3     1  UNL1        0.0721
     22 C         138.3362  150.8669  155.8754 C.3     1  UNL1        0.0174
     23 C         138.6763  151.8141  154.7630 C.3     1  UNL1        0.0029
     24 C         139.4152  151.3184  153.5555 C.3     1  UNL1        0.0174
     25 C         139.8141  149.8756  153.4603 C.3     1  UNL1        0.0721
     26 C         142.3611  140.2663  165.9555 C.3     1  UNL1        0.1182
     27 C         142.6425  140.6906  167.3665 C.ar    1  UNL1       -0.0003
     28 C         142.5655  139.6890  168.4804 C.ar    1  UNL1       -0.0024
     29 C         142.8469  140.1133  169.8913 C.ar    1  UNL1       -0.0003
     30 C         143.2054  141.5392  170.1883 C.ar    1  UNL1       -0.0000
     31 C         143.2825  142.5408  169.0744 C.ar    1  UNL1       -0.0003
     32 C         143.0010  142.1165  167.6635 C.ar    1  UNL1       -0.0024
     33 C         141.1860  139.3827  165.6583 C.ar    1  UNL1       -0.0003
     34 C         141.3788  138.1150  164.8800 C.ar    1  UNL1       -0.0024
     35 C         140.2036  137.2313  164.5828 C.ar    1  UNL1       -0.0003
     36 C         138.8358  137.6154  165.0638 C.ar    1  UNL1       -0.0000
     37 C         138.6430  138.8831  165.8421 C.ar    1  UNL1       -0.0003
     38 C         139.8181  139.7668  166.1393 C.ar    1  UNL1       -0.0024
@<TRIPOS>BOND
     1     1     2    2
     2     2     3   am
     3     3    26    1
     4    26    27    1
     5    27    28   ar
     6    28    29   ar
     7    29    30   ar
     8    30    31   ar
     9    31    32   ar
    10    26    33    1
    11    33    34   ar
    12    34    35   ar
    13    35    36   ar
    14    36    37   ar
    15    37    38   ar
    16     2     4   am
    17     4     7    1
    18     7     8    2
    19     7     9    2
    20     7    10    1
    21    10    11   ar
    22    11    12   ar
    23    12    13   ar
    24    13    16    1
    25    16    17    1
    26    17    18    1
    27    18    19    1
    28    19    20    1
    29    20    21    1
    30    21    22    1
    31    22    23    1
    32    23    24    1
    33    24    25    1
    34    13    14   ar
    35    14    15   ar
    36    32    27   ar
    37    38    33   ar
    38    15    10   ar
    39    25    20    1
    40     3     5    1
    41     4     6    1
@<TRIPOS>MOLECULE
*****
 38 41 0 0 0
SMALL
GASTEIGER

@<TRIPOS>ATOM
      1 O         143.2099  137.7969  159.9438 O.2     1  UNL1       -0.2512
      2 C         141.8146  138.2232  159.5949 C.2     1  UNL1        0.3199
      3 N         141.3472  138.1668  158.1708 N.am    1  UNL1       -0.2819
      4 N         140.8870  138.7059  160.6702 N.am    1  UNL1       -0.1693
      5 H         140.4315  138.4467  157.9418 H       1  UNL1        0.1516
      6 H         139.9712  138.9857  160.4413 H       1  UNL1        0.1781
      7 S         141.3545  138.7623  162.0945 S.O2    1  UNL1        0.0768
      8 O         140.9082  137.3447  162.2971 O.2     1  UNL1       -0.1498
      9 O         141.8008  140.1799  161.8918 O.2     1  UNL1       -0.1498
     10 C         141.8220  138.8187  163.5186 C.ar    1  UNL1        0.1255
     11 C         140.8265  138.9803  164.6289 C.ar    1  UNL1        0.0233
     12 C         141.2940  139.0367  166.0531 C.ar    1  UNL1        0.0383
     13 C         142.7570  138.9315  166.3670 C.ar    1  UNL1        0.1386
     14 C         143.7526  138.7699  165.2566 C.ar    1  UNL1        0.0383
     15 C         143.2850  138.7135  163.8324 C.ar    1  UNL1        0.0233
     16 O         143.2246  138.9879  167.7911 O.3     1  UNL1       -0.4754
     17 C         142.3395  139.5790  168.8481 C.3     1  UNL1        0.2068
     18 C         142.6706  140.9162  169.4418 C.3     1  UNL1        0.0646
     19 C         143.0878  142.0493  168.5520 C.3     1  UNL1        0.0759
     20 N         142.3343  142.3242  167.2844 N.3     1  UNL1       -0.2726
     21 C         143.0662  142.3950  165.9771 C.3     1  UNL1        0.0721
     22 C         142.3127  142.6699  164.7096 C.3     1  UNL1        0.0174
     23 C         140.8272  142.8740  164.7495 C.3     1  UNL1        0.0029
     24 C         140.0952  142.8033  166.0568 C.3     1  UNL1        0.0174
     25 C         140.8487  142.5284  167.3243 C.3     1  UNL1        0.0721
     26 C         142.2749  137.6841  157.0954 C.3     1  UNL1        0.1182
     27 C         143.2283  138.6406  156.4424 C.ar    1  UNL1       -0.0003
     28 C         144.1626  138.1559  155.3738 C.ar    1  UNL1       -0.0024
     29 C         145.1160  139.1123  154.7209 C.ar    1  UNL1       -0.0003
     30 C         145.1350  140.5534  155.1366 C.ar    1  UNL1       -0.0000
     31 C         144.2007  141.0381  156.2052 C.ar    1  UNL1       -0.0003
     32 C         143.2474  140.0817  156.8582 C.ar    1  UNL1       -0.0024
     33 C         142.2492  136.2451  156.6730 C.ar    1  UNL1       -0.0003
     34 C         143.1449  135.2492  157.3482 C.ar    1  UNL1       -0.0024
     35 C         143.1192  133.8100  156.9258 C.ar    1  UNL1       -0.0003
     36 C         142.1978  133.3669  155.8282 C.ar    1  UNL1       -0.0000
     37 C         141.3021  134.3629  155.1531 C.ar    1  UNL1       -0.0003
     38 C         141.3278  135.8019  155.5754 C.ar    1  UNL1       -0.0024
@<TRIPOS>BOND
     1     1     2    2
     2     2     3   am
     3     3    26    1
     4    26    27    1
     5    27    28   ar
     6    28    29   ar
     7    29    30   ar
     8    30    31   ar
     9    31    32   ar
    10    26    33    1
    11    33    34   ar
    12    34    35   ar
    13    35    36   ar
    14    36    37   ar
    15    37    38   ar
    16     2     4   am
    17     4     7    1
    18     7     8    2
    19     7     9    2
    20     7    10    1
    21    10    11   ar
    22    11    12   ar
    23    12    13   ar
    24    13    16    1
    25    16    17    1
    26    17    18    1
    27    18    19    1
    28    19    20    1
    29    20    21    1
    30    21    22    1
    31    22    23    1
    32    23    24    1
    33    24    25    1
    34    13    14   ar
    35    14    15   ar
    36    32    27   ar
    37    38    33   ar
    38    15    10   ar
    39    25    20    1
    40     3     5    1
    41     4     6    1
@<TRIPOS>MOLECULE
*****
 38 41 0 0 0
SMALL
GASTEIGER

@<TRIPOS>ATOM
      1 O         140.8734  140.5065  162.8872 O.2     1  UNL1       -0.2512
      2 C         139.9177  139.4205  163.2840 C.2     1  UNL1        0.3199
      3 N         139.3125  139.4186  164.6565 N.am    1  UNL1       -0.2819
      4 N         139.5674  138.3364  162.3084 N.am    1  UNL1       -0.1693
      5 H         138.6853  138.7058  164.9169 H       1  UNL1        0.1516
      6 H         138.9402  137.6236  162.5688 H       1  UNL1        0.1781
      7 S         140.1726  138.3383  160.9358 S.O2    1  UNL1        0.0768
      8 O         141.3722  137.6088  161.4638 O.2     1  UNL1       -0.1498
      9 O         138.9731  139.0679  160.4079 O.2     1  UNL1       -0.1498
     10 C         140.7778  138.3403  159.5634 C.ar    1  UNL1        0.1255
     11 C         139.9244  138.0399  158.3670 C.ar    1  UNL1        0.0233
     12 C         140.5296  138.0418  156.9944 C.ar    1  UNL1        0.0383
     13 C         141.9882  138.3442  156.8184 C.ar    1  UNL1        0.1386
     14 C         142.8416  138.6446  158.0148 C.ar    1  UNL1        0.0383
     15 C         142.2365  138.6426  159.3873 C.ar    1  UNL1        0.0233
     16 O         142.5934  138.3461  155.4459 O.3     1  UNL1       -0.4754
     17 C         143.2773  137.1165  154.9261 C.3     1  UNL1        0.2068
     18 C         143.5931  135.9836  155.8572 C.3     1  UNL1        0.0646
     19 C         142.6427  134.8301  155.9844 C.3     1  UNL1        0.0759
     20 N         143.1367  133.5021  156.4767 N.3     1  UNL1       -0.2726
     21 C         142.4123  132.2447  156.0969 C.3     1  UNL1        0.0721
     22 C         142.9063  130.9167  156.5892 C.3     1  UNL1        0.0174
     23 C         144.1246  130.8461  157.4614 C.3     1  UNL1        0.0029
     24 C         144.8489  132.1035  157.8413 C.3     1  UNL1        0.0174
     25 C         144.3550  133.4314  157.3489 C.3     1  UNL1        0.0721
     26 C         139.6629  140.5027  165.6322 C.3     1  UNL1        0.1182
     27 C         139.2229  141.9136  165.3756 C.ar    1  UNL1       -0.0003
     28 C         137.9530  142.1779  164.6224 C.ar    1  UNL1       -0.0024
     29 C         137.5130  143.5888  164.3658 C.ar    1  UNL1       -0.0003
     30 C         138.3430  144.7353  164.8624 C.ar    1  UNL1       -0.0000
     31 C         139.6129  144.4710  165.6155 C.ar    1  UNL1       -0.0003
     32 C         140.0529  143.0602  165.8721 C.ar    1  UNL1       -0.0024
     33 C         140.4533  140.1760  166.8645 C.ar    1  UNL1       -0.0003
     34 C         139.7967  140.2273  168.2121 C.ar    1  UNL1       -0.0024
     35 C         140.5871  139.9005  169.4445 C.ar    1  UNL1       -0.0003
     36 C         142.0340  139.5224  169.3290 C.ar    1  UNL1       -0.0000
     37 C         142.6906  139.4711  167.9814 C.ar    1  UNL1       -0.0003
     38 C         141.9003  139.7978  166.7491 C.ar    1  UNL1       -0.0024
@<TRIPOS>BOND
     1     1     2    2
     2     2     3   am
     3     3    26    1
     4    26    27    1
     5    27    28   ar
     6    28    29   ar
     7    29    30   ar
     8    30    31   ar
     9    31    32   ar
    10    26    33    1
    11    33    34   ar
    12    34    35   ar
    13    35    36   ar
    14    36    37   ar
    15    37    38   ar
    16     2     4   am
    17     4     7    1
    18     7     8    2
    19     7     9    2
    20     7    10    1
    21    10    11   ar
    22    11    12   ar
    23    12    13   ar
    24    13    16    1
    25    16    17    1
    26    17    18    1
    27    18    19    1
    28    19    20    1
    29    20    21    1
    30    21    22    1
    31    22    23    1
    32    23    24    1
    33    24    25    1
    34    13    14   ar
    35    14    15   ar
    36    32    27   ar
    37    38    33   ar
    38    15    10   ar
    39    25    20    1
    40     3     5    1
    41     4     6    1
@<TRIPOS>MOLECULE
*****
 38 41 0 0 0
SMALL
GASTEIGER

@<TRIPOS>ATOM
      1 O         141.5976  138.1713  160.1891 O.2     1  UNL1       -0.2512
      2 C         140.4801  138.7190  159.3517 C.2     1  UNL1        0.3199
      3 N         140.6174  138.7713  157.8590 N.am    1  UNL1       -0.2819
      4 N         139.2252  139.2146  160.0072 N.am    1  UNL1       -0.1693
      5 H         139.8839  139.1308  157.3094 H       1  UNL1        0.1516
      6 H         138.4917  139.5741  159.4577 H       1  UNL1        0.1781
      7 S         139.0879  139.1624  161.5001 S.O2    1  UNL1        0.0768
      8 O         139.6341  140.5558  161.5991 O.2     1  UNL1       -0.1498
      9 O         138.5416  137.7689  161.4010 O.2     1  UNL1       -0.1498
     10 C         138.9506  139.1101  162.9928 C.ar    1  UNL1        0.1255
     11 C         139.3123  137.8583  163.7358 C.ar    1  UNL1        0.0233
     12 C         139.1750  137.8060  165.2287 C.ar    1  UNL1        0.0383
     13 C         138.6759  139.0055  165.9784 C.ar    1  UNL1        0.1386
     14 C         138.3141  140.2573  165.2353 C.ar    1  UNL1        0.0383
     15 C         138.4515  140.3096  163.7426 C.ar    1  UNL1        0.0233
     16 O         138.5386  138.9532  167.4712 O.3     1  UNL1       -0.4754
     17 C         139.1271  140.0431  168.3171 C.3     1  UNL1        0.2068
     18 C         140.5017  139.8836  168.8962 C.3     1  UNL1        0.0646
     19 C         141.6764  140.5371  168.2306 C.3     1  UNL1        0.0759
     20 N         141.9682  140.2621  166.7851 N.3     1  UNL1       -0.2726
     21 C         142.4969  138.9216  166.3686 C.3     1  UNL1        0.0721
     22 C         142.7887  138.6466  164.9233 C.3     1  UNL1        0.0174
     23 C         142.5516  139.7121  163.8944 C.3     1  UNL1        0.0029
     24 C         142.0228  141.0525  164.3109 C.3     1  UNL1        0.0174
     25 C         141.7311  141.3275  165.7562 C.3     1  UNL1        0.0721
     26 C         141.8723  138.2757  157.2035 C.3     1  UNL1        0.1182
     27 C         143.0377  139.2018  157.0181 C.ar    1  UNL1       -0.0003
     28 C         143.9071  139.0792  155.8020 C.ar    1  UNL1       -0.0024
     29 C         145.0724  140.0053  155.6167 C.ar    1  UNL1       -0.0003
     30 C         145.3684  141.0539  156.6476 C.ar    1  UNL1       -0.0000
     31 C         144.4990  141.1765  157.8638 C.ar    1  UNL1       -0.0003
     32 C         143.3336  140.2505  158.0490 C.ar    1  UNL1       -0.0024
     33 C         141.9618  136.8542  156.7333 C.ar    1  UNL1       -0.0003
     34 C         141.0547  136.3663  155.6427 C.ar    1  UNL1       -0.0024
     35 C         141.1443  134.9447  155.1726 C.ar    1  UNL1       -0.0003
     36 C         142.1409  134.0110  155.7929 C.ar    1  UNL1       -0.0000
     37 C         143.0480  134.4988  156.8834 C.ar    1  UNL1       -0.0003
     38 C         142.9585  135.9203  157.3536 C.ar    1  UNL1       -0.0024
@<TRIPOS>BOND
     1     1     2    2
     2     2     3   am
     3     3    26    1
     4    26    27    1
     5    27    28   ar
     6    28    29   ar
     7    29    30   ar
     8    30    31   ar
     9    31    32   ar
    10    26    33    1
    11    33    34   ar
    12    34    35   ar
    13    35    36   ar
    14    36    37   ar
    15    37    38   ar
    16     2     4   am
    17     4     7    1
    18     7     8    2
    19     7     9    2
    20     7    10    1
    21    10    11   ar
    22    11    12   ar
    23    12    13   ar
    24    13    16    1
    25    16    17    1
    26    17    18    1
    27    18    19    1
    28    19    20    1
    29    20    21    1
    30    21    22    1
    31    22    23    1
    32    23    24    1
    33    24    25    1
    34    13    14   ar
    35    14    15   ar
    36    32    27   ar
    37    38    33   ar
    38    15    10   ar
    39    25    20    1
    40     3     5    1
    41     4     6    1
@<TRIPOS>MOLECULE
*****
 38 41 0 0 0
SMALL
GASTEIGER

@<TRIPOS>ATOM
      1 O         137.3736  140.2204  158.1735 O.2     1  UNL1       -0.2512
      2 C         137.3251  141.6479  157.7153 C.2     1  UNL1        0.3199
      3 N         136.5295  142.0186  156.4990 N.am    1  UNL1       -0.2819
      4 N         138.0722  142.7047  158.4736 N.am    1  UNL1       -0.1693
      5 H         136.4976  142.9555  156.1983 H       1  UNL1        0.1516
      6 H         138.0404  143.6417  158.1729 H       1  UNL1        0.1781
      7 S         138.8678  142.3340  159.6900 S.O2    1  UNL1        0.0768
      8 O         137.7364  142.7823  160.5668 O.2     1  UNL1       -0.1498
      9 O         139.9993  141.8856  158.8132 O.2     1  UNL1       -0.1498
     10 C         139.6635  141.9632  160.9063 C.ar    1  UNL1        0.1255
     11 C         141.1572  141.8557  160.8213 C.ar    1  UNL1        0.0233
     12 C         141.9529  141.4849  162.0376 C.ar    1  UNL1        0.0383
     13 C         141.2548  141.2217  163.3390 C.ar    1  UNL1        0.1386
     14 C         139.7610  141.3293  163.4239 C.ar    1  UNL1        0.0383
     15 C         138.9654  141.7000  162.2076 C.ar    1  UNL1        0.0233
     16 O         142.0504  140.8510  164.5553 O.3     1  UNL1       -0.4754
     17 C         141.5837  139.7382  165.4463 C.3     1  UNL1        0.2068
     18 C         142.1061  138.3466  165.2446 C.3     1  UNL1        0.0646
     19 C         141.2439  137.3097  164.5877 C.3     1  UNL1        0.0759
     20 N         140.5008  137.6410  163.3275 N.3     1  UNL1       -0.2726
     21 C         139.0034  137.7272  163.3404 C.3     1  UNL1        0.0721
     22 C         138.2604  138.0585  162.0802 C.3     1  UNL1        0.0174
     23 C         139.0148  138.3036  160.8071 C.3     1  UNL1        0.0029
     24 C         140.5122  138.2175  160.7942 C.3     1  UNL1        0.0174
     25 C         141.2552  137.8862  162.0544 C.3     1  UNL1        0.0721
     26 C         135.7823  140.9618  155.7407 C.3     1  UNL1        0.1182
     27 C         134.3334  140.7098  156.0359 C.ar    1  UNL1       -0.0003
     28 C         133.9450  139.7694  157.1381 C.ar    1  UNL1       -0.0024
     29 C         132.4961  139.5175  157.4333 C.ar    1  UNL1       -0.0003
     30 C         131.4356  140.2059  156.6263 C.ar    1  UNL1       -0.0000
     31 C         131.8239  141.1464  155.5242 C.ar    1  UNL1       -0.0003
     32 C         133.2728  141.3983  155.2290 C.ar    1  UNL1       -0.0024
     33 C         136.4841  140.1570  154.6872 C.ar    1  UNL1       -0.0003
     34 C         136.0461  138.7511  154.4017 C.ar    1  UNL1       -0.0024
     35 C         136.7480  137.9463  153.3482 C.ar    1  UNL1       -0.0003
     36 C         137.8876  138.5474  152.5802 C.ar    1  UNL1       -0.0000
     37 C         138.3255  139.9534  152.8658 C.ar    1  UNL1       -0.0003
     38 C         137.6238  140.7582  153.9192 C.ar    1  UNL1       -0.0024
@<TRIPOS>BOND
     1     1     2    2
     2     2     3   am
     3     3    26    1
     4    26    27    1
     5    27    28   ar
     6    28    29   ar
     7    29    30   ar
     8    30    31   ar
     9    31    32   ar
    10    26    33    1
    11    33    34   ar
    12    34    35   ar
    13    35    36   ar
    14    36    37   ar
    15    37    38   ar
    16     2     4   am
    17     4     7    1
    18     7     8    2
    19     7     9    2
    20     7    10    1
    21    10    11   ar
    22    11    12   ar
    23    12    13   ar
    24    13    16    1
    25    16    17    1
    26    17    18    1
    27    18    19    1
    28    19    20    1
    29    20    21    1
    30    21    22    1
    31    22    23    1
    32    23    24    1
    33    24    25    1
    34    13    14   ar
    35    14    15   ar
    36    32    27   ar
    37    38    33   ar
    38    15    10   ar
    39    25    20    1
    40     3     5    1
    41     4     6    1
