@<TRIPOS>MOLECULE
*****
 32 37 0 0 0
SMALL
GASTEIGER

@<TRIPOS>ATOM
      1 C         142.5781  136.7187  157.7641 C.3     1  UNL1        0.1161
      2 C         143.3073  135.4227  157.5674 C.3     1  UNL1        0.0510
      3 C         142.9584  134.5340  156.4105 C.2     1  UNL1       -0.0044
      4 C         141.8804  134.9413  155.4503 C.2     1  UNL1        0.0689
      5 N         141.7561  133.8676  154.4103 N.2     1  UNL1       -0.2526
      6 C         142.7573  132.7966  154.7278 C.2     1  UNL1        0.0627
      7 C         143.0883  131.4996  154.0509 C.3     1  UNL1        0.0717
      8 C         144.1623  130.6145  154.6102 C.2     1  UNL1       -0.0198
      9 C         144.9054  131.0264  155.8464 C.2     1  UNL1       -0.0042
     10 C         144.5744  132.3234  156.5233 C.2     1  UNL1        0.0006
     11 C         143.5003  133.2085  155.9640 C.2     1  UNL1        0.0111
     12 C         141.1513  136.2374  155.6470 C.3     1  UNL1        0.0949
     13 N         141.5001  137.1261  156.8039 N.3     1  UNL1       -0.2887
     14 H         140.6477  137.2450  157.3514 H       1  UNL1        0.1239
     15 C         143.2389  138.4419  161.1788 C.ar    1  UNL1        0.0769
     16 C         143.6889  139.5079  160.2243 C.ar    1  UNL1        0.1171
     17 N         143.4962  138.9922  158.8290 N.ar    1  UNL1       -0.2282
     18 C         142.9270  137.6075  158.9211 C.ar    1  UNL1        0.1318
     19 N         142.7680  137.2673  160.3734 N.ar    1  UNL1       -0.3397
     20 H         142.4164  136.4216  160.7345 H       1  UNL1        0.1671
     21 C         143.2922  138.7189  165.6699 C.ar    1  UNL1        0.0000
     22 C         144.4287  139.2834  164.8702 C.ar    1  UNL1        0.0000
     23 C         144.4109  139.1911  163.3731 C.ar    1  UNL1        0.0015
     24 C         143.2566  138.5342  162.6759 C.ar    1  UNL1        0.0172
     25 C         142.1201  137.9697  163.4756 C.ar    1  UNL1        0.0015
     26 C         142.1379  138.0620  164.9726 C.ar    1  UNL1        0.0000
     27 C         140.0733  136.6447  154.6868 C.3     1  UNL1        0.0252
     28 C         138.7729  137.1845  155.2041 C.3     1  UNL1        0.0339
     29 C         137.6949  137.5918  154.2438 C.3     1  UNL1        0.1422
     30 O         137.9174  137.4594  152.7663 O.3     1  UNL1       -0.3538
     31 C         139.2178  136.9196  152.2490 C.3     1  UNL1        0.1422
     32 C         140.2957  136.5123  153.2092 C.3     1  UNL1        0.0339
@<TRIPOS>BOND
     1    21    22   ar
     2    22    23   ar
     3    23    24   ar
     4    24    15    1
     5    15    16   ar
     6    16    17   ar
     7    17    18   ar
     8     1    18    1
     9     1     2    1
    10     2     3    1
    11     3     4    2
    12     4     5    1
    13     5     6    2
    14     6     7    1
    15     7     8    1
    16     8     9    2
    17     9    10    1
    18    10    11    2
    19     4    12    1
    20    12    27    1
    21    27    28    1
    22    28    29    1
    23    29    30    1
    24    30    31    1
    25    31    32    1
    26    12    13    1
    27    18    19   ar
    28    24    25   ar
    29    25    26   ar
    30    26    21   ar
    31    19    15   ar
    32    13     1    1
    33    11     3    1
    34    32    27    1
    35    11     6    1
    36    13    14    1
    37    19    20    1
@<TRIPOS>MOLECULE
*****
 32 37 0 0 0
SMALL
GASTEIGER

@<TRIPOS>ATOM
      1 C         143.2572  143.0018  157.3901 C.3     1  UNL1        0.1161
      2 C         143.3231  143.2642  158.8655 C.3     1  UNL1        0.0510
      3 C         142.1709  143.9255  159.5619 C.2     1  UNL1       -0.0044
      4 C         140.9527  144.3244  158.7828 C.2     1  UNL1        0.0689
      5 N         139.9798  144.9548  159.7346 N.2     1  UNL1       -0.2526
      6 C         140.5967  144.9456  161.1019 C.2     1  UNL1        0.0627
      7 C         140.1002  145.4343  162.4303 C.3     1  UNL1        0.0717
      8 C         140.9580  145.2867  163.6519 C.2     1  UNL1       -0.0198
      9 C         142.3122  144.6505  163.5452 C.2     1  UNL1       -0.0042
     10 C         142.8086  144.1619  162.2168 C.2     1  UNL1        0.0006
     11 C         141.9509  144.3094  160.9951 C.2     1  UNL1        0.0111
     12 C         140.8868  144.0620  157.3074 C.3     1  UNL1        0.0949
     13 N         142.0391  143.4007  156.6111 N.3     1  UNL1       -0.2887
     14 H         142.3521  144.0439  155.8840 H       1  UNL1        0.1239
     15 C         146.5284  141.9859  155.5644 C.ar    1  UNL1        0.0769
     16 C         145.8371  140.6598  155.6799 C.ar    1  UNL1        0.1171
     17 N         144.5276  140.8788  156.3779 N.ar    1  UNL1       -0.2282
     18 C         144.4096  142.3404  156.6937 C.ar    1  UNL1        0.1318
     19 N         145.6461  143.0247  156.1910 N.ar    1  UNL1       -0.3397
     20 H         145.8439  143.9866  156.2601 H       1  UNL1        0.1671
     21 C         150.5440  142.7197  153.6706 C.ar    1  UNL1        0.0000
     22 C         149.3178  143.3734  153.1059 C.ar    1  UNL1        0.0000
     23 C         147.9793  143.1288  153.7372 C.ar    1  UNL1        0.0015
     24 C         147.8670  142.2305  154.9331 C.ar    1  UNL1        0.0172
     25 C         149.0932  141.5768  155.4979 C.ar    1  UNL1        0.0015
     26 C         150.4317  141.8214  154.8666 C.ar    1  UNL1        0.0000
     27 C         139.6686  144.4609  156.5284 C.3     1  UNL1        0.0252
     28 C         139.5527  145.8512  155.9776 C.3     1  UNL1        0.0339
     29 C         138.3344  146.2500  155.1985 C.3     1  UNL1        0.1422
     30 O         137.2322  145.2586  154.9703 O.3     1  UNL1       -0.3538
     31 C         137.3482  143.8682  155.5212 C.3     1  UNL1        0.1422
     32 C         138.5663  143.4694  156.3002 C.3     1  UNL1        0.0339
@<TRIPOS>BOND
     1    21    22   ar
     2    22    23   ar
     3    23    24   ar
     4    24    15    1
     5    15    16   ar
     6    16    17   ar
     7    17    18   ar
     8     1    18    1
     9     1     2    1
    10     2     3    1
    11     3     4    2
    12     4     5    1
    13     5     6    2
    14     6     7    1
    15     7     8    1
    16     8     9    2
    17     9    10    1
    18    10    11    2
    19     4    12    1
    20    12    27    1
    21    27    28    1
    22    28    29    1
    23    29    30    1
    24    30    31    1
    25    31    32    1
    26    12    13    1
    27    18    19   ar
    28    24    25   ar
    29    25    26   ar
    30    26    21   ar
    31    19    15   ar
    32    13     1    1
    33    11     3    1
    34    32    27    1
    35    11     6    1
    36    13    14    1
    37    19    20    1
@<TRIPOS>MOLECULE
*****
 32 37 0 0 0
SMALL
GASTEIGER

@<TRIPOS>ATOM
      1 C         142.0612  139.9644  160.6307 C.3     1  UNL1        0.1161
      2 C         142.5083  139.3381  161.9183 C.3     1  UNL1        0.0510
      3 C         142.2206  140.0194  163.2233 C.2     1  UNL1       -0.0044
      4 C         141.4858  141.3270  163.2407 C.2     1  UNL1        0.0689
      5 N         141.3463  141.7612  164.6697 N.2     1  UNL1       -0.2526
      6 C         141.9949  140.7220  165.5354 C.2     1  UNL1        0.0627
      7 C         142.1632  140.6170  167.0222 C.3     1  UNL1        0.0717
      8 C         142.8719  139.4354  167.6151 C.2     1  UNL1       -0.0198
      9 C         143.4123  138.3588  166.7212 C.2     1  UNL1       -0.0042
     10 C         143.2439  138.4639  165.2344 C.2     1  UNL1        0.0006
     11 C         142.5352  139.6455  164.6415 C.2     1  UNL1        0.0111
     12 C         141.0387  141.9532  161.9531 C.3     1  UNL1        0.0949
     13 N         141.3264  141.2719  160.6481 N.3     1  UNL1       -0.2887
     14 H         141.8751  141.9255  160.0894 H       1  UNL1        0.1239
     15 C         142.4749  137.6057  157.5761 C.ar    1  UNL1        0.0769
     16 C         143.1081  138.8633  157.0590 C.ar    1  UNL1        0.1171
     17 N         143.0302  139.8999  158.1404 N.ar    1  UNL1       -0.2282
     18 C         142.3489  139.2830  159.3257 C.ar    1  UNL1        0.1318
     19 N         142.0056  137.8651  158.9770 N.ar    1  UNL1       -0.3397
     20 H         141.5520  137.2182  159.5645 H       1  UNL1        0.1671
     21 C         142.0564  133.7343  155.3206 C.ar    1  UNL1        0.0000
     22 C         141.2013  134.9113  154.9554 C.ar    1  UNL1        0.0000
     23 C         141.3408  136.2017  155.7072 C.ar    1  UNL1        0.0015
     24 C         142.3354  136.3151  156.8243 C.ar    1  UNL1        0.0172
     25 C         143.1905  135.1382  157.1895 C.ar    1  UNL1        0.0015
     26 C         143.0510  133.8477  156.4377 C.ar    1  UNL1        0.0000
     27 C         140.3039  143.2608  161.9705 C.3     1  UNL1        0.0252
     28 C         140.8786  144.4535  161.2655 C.3     1  UNL1        0.0339
     29 C         140.1438  145.7611  161.2829 C.3     1  UNL1        0.1422
     30 O         138.8343  145.8760  162.0054 O.3     1  UNL1       -0.3538
     31 C         138.2595  144.6832  162.7105 C.3     1  UNL1        0.1422
     32 C         138.9944  143.3757  162.6930 C.3     1  UNL1        0.0339
@<TRIPOS>BOND
     1    21    22   ar
     2    22    23   ar
     3    23    24   ar
     4    24    15    1
     5    15    16   ar
     6    16    17   ar
     7    17    18   ar
     8     1    18    1
     9     1     2    1
    10     2     3    1
    11     3     4    2
    12     4     5    1
    13     5     6    2
    14     6     7    1
    15     7     8    1
    16     8     9    2
    17     9    10    1
    18    10    11    2
    19     4    12    1
    20    12    27    1
    21    27    28    1
    22    28    29    1
    23    29    30    1
    24    30    31    1
    25    31    32    1
    26    12    13    1
    27    18    19   ar
    28    24    25   ar
    29    25    26   ar
    30    26    21   ar
    31    19    15   ar
    32    13     1    1
    33    11     3    1
    34    32    27    1
    35    11     6    1
    36    13    14    1
    37    19    20    1
@<TRIPOS>MOLECULE
*****
 32 37 0 0 0
SMALL
GASTEIGER

@<TRIPOS>ATOM
      1 C         139.3670  139.7820  157.6624 C.3     1  UNL1        0.1161
      2 C         139.0390  139.6824  159.1228 C.3     1  UNL1        0.0510
      3 C         138.7377  140.9231  159.9101 C.2     1  UNL1       -0.0044
      4 C         138.7643  142.2634  159.2370 C.2     1  UNL1        0.0689
      5 N         138.4270  143.3041  160.2632 N.2     1  UNL1       -0.2526
      6 C         138.1919  142.6071  161.5704 C.2     1  UNL1        0.0627
      7 C         137.8278  143.1223  162.9313 C.3     1  UNL1        0.0717
      8 C         137.6557  142.1659  164.0739 C.2     1  UNL1       -0.0198
      9 C         137.8477  140.6943  163.8557 C.2     1  UNL1       -0.0042
     10 C         138.2118  140.1792  162.4948 C.2     1  UNL1        0.0006
     11 C         138.3839  141.1356  161.3522 C.2     1  UNL1        0.0111
     12 C         139.0923  142.3629  157.7767 C.3     1  UNL1        0.0949
     13 N         139.3936  141.1222  156.9894 N.3     1  UNL1       -0.2887
     14 H         140.3303  141.2390  156.6028 H       1  UNL1        0.1239
     15 C         140.7555  136.5273  156.0673 C.ar    1  UNL1        0.0769
     16 C         139.5085  136.7365  155.2602 C.ar    1  UNL1        0.1171
     17 N         138.8366  137.9812  155.7595 N.ar    1  UNL1       -0.2282
     18 C         139.6683  138.5412  156.8752 C.ar    1  UNL1        0.1318
     19 N         140.8542  137.6427  157.0654 N.ar    1  UNL1       -0.3397
     20 H         141.5715  137.7638  157.7288 H       1  UNL1        0.1671
     21 C         143.6857  133.1470  155.5797 C.ar    1  UNL1        0.0000
     22 C         142.4863  133.2351  154.6832 C.ar    1  UNL1        0.0000
     23 C         141.5096  134.3618  154.8458 C.ar    1  UNL1        0.0015
     24 C         141.7323  135.4005  155.9048 C.ar    1  UNL1        0.0172
     25 C         142.9316  135.3125  156.8013 C.ar    1  UNL1        0.0015
     26 C         143.9083  134.1857  156.6388 C.ar    1  UNL1        0.0000
     27 C         139.1190  143.7032  157.1036 C.3     1  UNL1        0.0252
     28 C         138.2049  143.9799  155.9471 C.3     1  UNL1        0.0339
     29 C         138.2316  145.3203  155.2740 C.3     1  UNL1        0.1422
     30 O         139.1724  146.3837  155.7576 O.3     1  UNL1       -0.3538
     31 C         140.0866  146.1070  156.9142 C.3     1  UNL1        0.1422
     32 C         140.0598  144.7667  157.5872 C.3     1  UNL1        0.0339
@<TRIPOS>BOND
     1    21    22   ar
     2    22    23   ar
     3    23    24   ar
     4    24    15    1
     5    15    16   ar
     6    16    17   ar
     7    17    18   ar
     8     1    18    1
     9     1     2    1
    10     2     3    1
    11     3     4    2
    12     4     5    1
    13     5     6    2
    14     6     7    1
    15     7     8    1
    16     8     9    2
    17     9    10    1
    18    10    11    2
    19     4    12    1
    20    12    27    1
    21    27    28    1
    22    28    29    1
    23    29    30    1
    24    30    31    1
    25    31    32    1
    26    12    13    1
    27    18    19   ar
    28    24    25   ar
    29    25    26   ar
    30    26    21   ar
    31    19    15   ar
    32    13     1    1
    33    11     3    1
    34    32    27    1
    35    11     6    1
    36    13    14    1
    37    19    20    1
@<TRIPOS>MOLECULE
*****
 32 37 0 0 0
SMALL
GASTEIGER

@<TRIPOS>ATOM
      1 C         143.1506  139.2876  158.0291 C.3     1  UNL1        0.1161
      2 C         142.3645  140.4637  157.5302 C.3     1  UNL1        0.0510
      3 C         142.2012  141.6780  158.3954 C.2     1  UNL1       -0.0044
      4 C         142.8239  141.7163  159.7595 C.2     1  UNL1        0.0689
      5 N         142.4949  143.0407  160.3822 N.2     1  UNL1       -0.2526
      6 C         141.6689  143.8210  159.4030 C.2     1  UNL1        0.0627
      7 C         141.0587  145.1895  159.4708 C.3     1  UNL1        0.0717
      8 C         140.2669  145.7159  158.3106 C.2     1  UNL1       -0.0198
      9 C         140.0853  144.8737  157.0827 C.2     1  UNL1       -0.0042
     10 C         140.6956  143.5052  157.0149 C.2     1  UNL1        0.0006
     11 C         141.4874  142.9788  158.1750 C.2     1  UNL1        0.0111
     12 C         143.6099  140.5401  160.2584 C.3     1  UNL1        0.0949
     13 N         143.7733  139.3258  159.3932 N.3     1  UNL1       -0.2887
     14 H         143.3881  138.5385  159.9149 H       1  UNL1        0.1239
     15 C         143.1180  135.8164  156.2925 C.ar    1  UNL1        0.0769
     16 C         144.0127  136.5926  155.3721 C.ar    1  UNL1        0.1171
     17 N         144.1338  137.9873  155.9106 N.ar    1  UNL1       -0.2282
     18 C         143.3140  138.0732  157.1638 C.ar    1  UNL1        0.1318
     19 N         142.6862  136.7315  157.3998 N.ar    1  UNL1       -0.3397
     20 H         142.0945  136.4934  158.1498 H       1  UNL1        0.1671
     21 C         141.9366  131.5006  155.8155 C.ar    1  UNL1        0.0000
     22 C         141.2243  132.5640  155.0333 C.ar    1  UNL1        0.0000
     23 C         141.6181  134.0026  155.1923 C.ar    1  UNL1        0.0015
     24 C         142.7242  134.3778  156.1335 C.ar    1  UNL1        0.0172
     25 C         143.4365  133.3144  156.9157 C.ar    1  UNL1        0.0015
     26 C         143.0427  131.8758  156.7566 C.ar    1  UNL1        0.0000
     27 C         144.2326  140.5784  161.6225 C.3     1  UNL1        0.0252
     28 C         145.0501  141.7643  162.0408 C.3     1  UNL1        0.0339
     29 C         145.6728  141.8025  163.4050 C.3     1  UNL1        0.1422
     30 O         145.4780  140.6547  164.3507 O.3     1  UNL1       -0.3538
     31 C         144.6605  139.4686  163.9324 C.3     1  UNL1        0.1422
     32 C         144.0378  139.4305  162.5684 C.3     1  UNL1        0.0339
@<TRIPOS>BOND
     1    21    22   ar
     2    22    23   ar
     3    23    24   ar
     4    24    15    1
     5    15    16   ar
     6    16    17   ar
     7    17    18   ar
     8     1    18    1
     9     1     2    1
    10     2     3    1
    11     3     4    2
    12     4     5    1
    13     5     6    2
    14     6     7    1
    15     7     8    1
    16     8     9    2
    17     9    10    1
    18    10    11    2
    19     4    12    1
    20    12    27    1
    21    27    28    1
    22    28    29    1
    23    29    30    1
    24    30    31    1
    25    31    32    1
    26    12    13    1
    27    18    19   ar
    28    24    25   ar
    29    25    26   ar
    30    26    21   ar
    31    19    15   ar
    32    13     1    1
    33    11     3    1
    34    32    27    1
    35    11     6    1
    36    13    14    1
    37    19    20    1
@<TRIPOS>MOLECULE
*****
 32 37 0 0 0
SMALL
GASTEIGER

@<TRIPOS>ATOM
      1 C         140.4996  139.6296  160.8359 C.3     1  UNL1        0.1161
      2 C         139.7763  139.0345  162.0075 C.3     1  UNL1        0.0510
      3 C         139.8889  139.6715  163.3608 C.2     1  UNL1       -0.0044
      4 C         140.7248  140.9037  163.5425 C.2     1  UNL1        0.0689
      5 N         140.6478  141.3074  164.9851 N.2     1  UNL1       -0.2526
      6 C         139.7642  140.3248  165.6950 C.2     1  UNL1        0.0627
      7 C         139.3262  140.2201  167.1257 C.3     1  UNL1        0.0717
      8 C         138.4191  139.1044  167.5526 C.2     1  UNL1       -0.0198
      9 C         137.9501  138.0933  166.5487 C.2     1  UNL1       -0.0042
     10 C         138.3881  138.1980  165.1180 C.2     1  UNL1        0.0006
     11 C         139.2952  139.3138  164.6911 C.2     1  UNL1        0.0111
     12 C         141.4482  141.4988  162.3709 C.3     1  UNL1        0.0949
     13 N         141.3356  140.8617  161.0176 N.3     1  UNL1       -0.2887
     14 H         142.2828  140.6206  160.7259 H       1  UNL1        0.1239
     15 C         140.8906  137.7016  157.4899 C.ar    1  UNL1        0.0769
     16 C         139.5371  138.3226  157.3102 C.ar    1  UNL1        0.1171
     17 N         139.2258  139.1204  158.5417 N.ar    1  UNL1       -0.2282
     18 C         140.3870  138.9924  159.4825 C.ar    1  UNL1        0.1318
     19 N         141.4159  138.1156  158.8326 N.ar    1  UNL1       -0.3397
     20 H         142.2836  137.8572  159.2193 H       1  UNL1        0.1671
     21 C         143.0042  135.0603  154.5225 C.ar    1  UNL1        0.0000
     22 C         143.7622  135.6503  155.6745 C.ar    1  UNL1        0.0000
     23 C         143.0577  136.5307  156.6636 C.ar    1  UNL1        0.0015
     24 C         141.5951  136.8211  156.5007 C.ar    1  UNL1        0.0172
     25 C         140.8371  136.2311  155.3487 C.ar    1  UNL1        0.0015
     26 C         141.5417  135.3507  154.3596 C.ar    1  UNL1        0.0000
     27 C         142.2841  142.7309  162.5526 C.3     1  UNL1        0.0252
     28 C         143.7515  142.6938  162.2443 C.3     1  UNL1        0.0339
     29 C         144.5874  143.9261  162.4260 C.3     1  UNL1        0.1422
     30 O         143.9559  145.1953  162.9160 O.3     1  UNL1       -0.3538
     31 C         142.4883  145.2323  163.2244 C.3     1  UNL1        0.1422
     32 C         141.6525  144.0002  163.0427 C.3     1  UNL1        0.0339
@<TRIPOS>BOND
     1    21    22   ar
     2    22    23   ar
     3    23    24   ar
     4    24    15    1
     5    15    16   ar
     6    16    17   ar
     7    17    18   ar
     8     1    18    1
     9     1     2    1
    10     2     3    1
    11     3     4    2
    12     4     5    1
    13     5     6    2
    14     6     7    1
    15     7     8    1
    16     8     9    2
    17     9    10    1
    18    10    11    2
    19     4    12    1
    20    12    27    1
    21    27    28    1
    22    28    29    1
    23    29    30    1
    24    30    31    1
    25    31    32    1
    26    12    13    1
    27    18    19   ar
    28    24    25   ar
    29    25    26   ar
    30    26    21   ar
    31    19    15   ar
    32    13     1    1
    33    11     3    1
    34    32    27    1
    35    11     6    1
    36    13    14    1
    37    19    20    1
@<TRIPOS>MOLECULE
*****
 32 37 0 0 0
SMALL
GASTEIGER

@<TRIPOS>ATOM
      1 C         141.2498  138.8344  158.5096 C.3     1  UNL1        0.1161
      2 C         142.3202  139.8766  158.3753 C.3     1  UNL1        0.0510
      3 C         143.3713  139.7397  157.3140 C.2     1  UNL1       -0.0044
      4 C         143.3521  138.5606  156.3871 C.2     1  UNL1        0.0689
      5 N         144.5111  138.6934  155.4442 N.2     1  UNL1       -0.2526
      6 C         145.2466  139.9545  155.7884 C.2     1  UNL1        0.0627
      7 C         146.4668  140.5976  155.1988 C.3     1  UNL1        0.0717
      8 C         146.9825  141.8874  155.7649 C.2     1  UNL1       -0.0198
      9 C         146.2781  142.5341  156.9206 C.2     1  UNL1       -0.0042
     10 C         145.0579  141.8910  157.5101 C.2     1  UNL1        0.0006
     11 C         144.5422  140.6012  156.9440 C.2     1  UNL1        0.0111
     12 C         142.2817  137.5184  156.5214 C.3     1  UNL1        0.0949
     13 N         141.2305  137.6552  157.5826 N.3     1  UNL1       -0.2887
     14 H         141.2909  136.8209  158.1662 H       1  UNL1        0.1239
     15 C         139.0851  138.9957  161.7273 C.ar    1  UNL1        0.0769
     16 C         138.0771  139.3683  160.6808 C.ar    1  UNL1        0.1171
     17 N         138.7652  139.3532  159.3481 N.ar    1  UNL1       -0.2282
     18 C         140.1986  138.9713  159.5709 C.ar    1  UNL1        0.1318
     19 N         140.3963  138.7504  161.0413 N.ar    1  UNL1       -0.3397
     20 H         141.2387  138.4901  161.4792 H       1  UNL1        0.1671
     21 C         138.3115  138.6712  166.1484 C.ar    1  UNL1        0.0000
     22 C         138.0943  139.9769  165.4429 C.ar    1  UNL1        0.0000
     23 C         138.3522  140.0851  163.9692 C.ar    1  UNL1        0.0015
     24 C         138.8272  138.8875  163.2010 C.ar    1  UNL1        0.0172
     25 C         139.0445  137.5817  163.9065 C.ar    1  UNL1        0.0015
     26 C         138.7866  137.4736  165.3802 C.ar    1  UNL1        0.0000
     27 C         142.2625  136.3392  155.5944 C.3     1  UNL1        0.0252
     28 C         141.9645  136.5354  154.1375 C.3     1  UNL1        0.0339
     29 C         141.9453  135.3561  153.2105 C.3     1  UNL1        0.1422
     30 O         142.2241  133.9809  153.7406 O.3     1  UNL1       -0.3538
     31 C         142.5220  133.7847  155.1975 C.3     1  UNL1        0.1422
     32 C         142.5412  134.9639  156.1244 C.3     1  UNL1        0.0339
@<TRIPOS>BOND
     1    21    22   ar
     2    22    23   ar
     3    23    24   ar
     4    24    15    1
     5    15    16   ar
     6    16    17   ar
     7    17    18   ar
     8     1    18    1
     9     1     2    1
    10     2     3    1
    11     3     4    2
    12     4     5    1
    13     5     6    2
    14     6     7    1
    15     7     8    1
    16     8     9    2
    17     9    10    1
    18    10    11    2
    19     4    12    1
    20    12    27    1
    21    27    28    1
    22    28    29    1
    23    29    30    1
    24    30    31    1
    25    31    32    1
    26    12    13    1
    27    18    19   ar
    28    24    25   ar
    29    25    26   ar
    30    26    21   ar
    31    19    15   ar
    32    13     1    1
    33    11     3    1
    34    32    27    1
    35    11     6    1
    36    13    14    1
    37    19    20    1
@<TRIPOS>MOLECULE
*****
 32 37 0 0 0
SMALL
GASTEIGER

@<TRIPOS>ATOM
      1 C         139.5038  139.6100  159.5816 C.3     1  UNL1        0.1161
      2 C         139.2728  138.8163  160.8333 C.3     1  UNL1        0.0510
      3 C         139.1217  139.5190  162.1498 C.2     1  UNL1       -0.0044
      4 C         139.2017  141.0155  162.2147 C.2     1  UNL1        0.0689
      5 N         139.0166  141.4279  163.6449 N.2     1  UNL1       -0.2526
      6 C         138.8223  140.1864  164.4640 C.2     1  UNL1        0.0627
      7 C         138.5946  139.9778  165.9318 C.3     1  UNL1        0.0717
      8 C         138.4319  138.5894  166.4756 C.2     1  UNL1       -0.0198
      9 C         138.4969  137.4096  165.5516 C.2     1  UNL1       -0.0042
     10 C         138.7246  137.6182  164.0837 C.2     1  UNL1        0.0006
     11 C         138.8873  139.0066  163.5399 C.2     1  UNL1        0.0111
     12 C         139.4326  141.8092  160.9630 C.3     1  UNL1        0.0949
     13 N         139.5837  141.1064  159.6464 N.3     1  UNL1       -0.2887
     14 H         140.4969  141.3689  159.2756 H       1  UNL1        0.1239
     15 C         140.4323  137.3997  156.5290 C.ar    1  UNL1        0.0769
     16 C         139.3423  138.2516  155.9492 C.ar    1  UNL1        0.1171
     17 N         138.8618  139.1832  157.0221 N.ar    1  UNL1       -0.2282
     18 C         139.6548  138.9072  158.2650 C.ar    1  UNL1        0.1318
     19 N         140.6255  137.8049  157.9603 N.ar    1  UNL1       -0.3397
     20 H         141.2752  137.4157  158.5893 H       1  UNL1        0.1671
     21 C         142.7212  134.1918  154.3564 C.ar    1  UNL1        0.0000
     22 C         143.1688  134.6430  155.7150 C.ar    1  UNL1        0.0000
     23 C         142.4058  135.7123  156.4392 C.ar    1  UNL1        0.0015
     24 C         141.1953  136.3304  155.8047 C.ar    1  UNL1        0.0172
     25 C         140.7477  135.8792  154.4461 C.ar    1  UNL1        0.0015
     26 C         141.5106  134.8099  153.7219 C.ar    1  UNL1        0.0000
     27 C         139.5125  143.3056  161.0278 C.3     1  UNL1        0.0252
     28 C         140.1454  144.0723  159.9046 C.3     1  UNL1        0.0339
     29 C         140.2253  145.5688  159.9695 C.3     1  UNL1        0.1422
     30 O         139.6723  146.2986  161.1576 O.3     1  UNL1       -0.3538
     31 C         139.0393  145.5319  162.2809 C.3     1  UNL1        0.1422
     32 C         138.9595  144.0355  162.2159 C.3     1  UNL1        0.0339
@<TRIPOS>BOND
     1    21    22   ar
     2    22    23   ar
     3    23    24   ar
     4    24    15    1
     5    15    16   ar
     6    16    17   ar
     7    17    18   ar
     8     1    18    1
     9     1     2    1
    10     2     3    1
    11     3     4    2
    12     4     5    1
    13     5     6    2
    14     6     7    1
    15     7     8    1
    16     8     9    2
    17     9    10    1
    18    10    11    2
    19     4    12    1
    20    12    27    1
    21    27    28    1
    22    28    29    1
    23    29    30    1
    24    30    31    1
    25    31    32    1
    26    12    13    1
    27    18    19   ar
    28    24    25   ar
    29    25    26   ar
    30    26    21   ar
    31    19    15   ar
    32    13     1    1
    33    11     3    1
    34    32    27    1
    35    11     6    1
    36    13    14    1
    37    19    20    1
@<TRIPOS>MOLECULE
*****
 32 37 0 0 0
SMALL
GASTEIGER

@<TRIPOS>ATOM
      1 C         140.7025  144.5761  157.7177 C.3     1  UNL1        0.1161
      2 C         140.8336  144.9345  159.1684 C.3     1  UNL1        0.0510
      3 C         141.5716  144.0220  160.1026 C.2     1  UNL1       -0.0044
      4 C         142.1786  142.7512  159.5861 C.2     1  UNL1        0.0689
      5 N         142.8433  142.0543  160.7360 N.2     1  UNL1       -0.2526
      6 C         142.6473  142.8943  161.9632 C.2     1  UNL1        0.0627
      7 C         143.0828  142.7090  163.3865 C.3     1  UNL1        0.0717
      8 C         142.7325  143.7398  164.4183 C.2     1  UNL1       -0.0198
      9 C         141.9465  144.9559  164.0268 C.2     1  UNL1       -0.0042
     10 C         141.5109  145.1413  162.6035 C.2     1  UNL1        0.0006
     11 C         141.8613  144.1105  161.5717 C.2     1  UNL1        0.0111
     12 C         142.0475  142.3929  158.1354 C.3     1  UNL1        0.0949
     13 N         141.3095  143.3054  157.2012 N.3     1  UNL1       -0.2887
     14 H         140.5492  142.7594  156.7958 H       1  UNL1        0.1239
     15 C         139.2666  147.4638  155.5578 C.ar    1  UNL1        0.0769
     16 C         138.3910  146.3219  155.1341 C.ar    1  UNL1        0.1171
     17 N         138.8223  145.1012  155.8916 N.ar    1  UNL1       -0.2282
     18 C         139.9645  145.4887  156.7835 C.ar    1  UNL1        0.1318
     19 N         140.2391  146.9488  156.5772 N.ar    1  UNL1       -0.3397
     20 H         140.9353  147.4765  157.0311 H       1  UNL1        0.1671
     21 C         139.0194  151.6920  154.0378 C.ar    1  UNL1        0.0000
     22 C         138.4661  151.3472  155.3886 C.ar    1  UNL1        0.0000
     23 C         138.5485  149.9378  155.8953 C.ar    1  UNL1        0.0015
     24 C         139.1842  148.8732  155.0511 C.ar    1  UNL1        0.0172
     25 C         139.7375  149.2181  153.7002 C.ar    1  UNL1        0.0015
     26 C         139.6551  150.6275  153.1936 C.ar    1  UNL1        0.0000
     27 C         142.6544  141.1221  157.6189 C.3     1  UNL1        0.0252
     28 C         143.7868  141.1769  156.6369 C.3     1  UNL1        0.0339
     29 C         144.3937  139.9060  156.1204 C.3     1  UNL1        0.1422
     30 O         143.8682  138.5805  156.5860 O.3     1  UNL1       -0.3538
     31 C         142.7357  138.5258  157.5681 C.3     1  UNL1        0.1422
     32 C         142.1288  139.7966  158.0845 C.3     1  UNL1        0.0339
@<TRIPOS>BOND
     1    21    22   ar
     2    22    23   ar
     3    23    24   ar
     4    24    15    1
     5    15    16   ar
     6    16    17   ar
     7    17    18   ar
     8     1    18    1
     9     1     2    1
    10     2     3    1
    11     3     4    2
    12     4     5    1
    13     5     6    2
    14     6     7    1
    15     7     8    1
    16     8     9    2
    17     9    10    1
    18    10    11    2
    19     4    12    1
    20    12    27    1
    21    27    28    1
    22    28    29    1
    23    29    30    1
    24    30    31    1
    25    31    32    1
    26    12    13    1
    27    18    19   ar
    28    24    25   ar
    29    25    26   ar
    30    26    21   ar
    31    19    15   ar
    32    13     1    1
    33    11     3    1
    34    32    27    1
    35    11     6    1
    36    13    14    1
    37    19    20    1
