@<TRIPOS>MOLECULE
*****
 28 31 0 0 0
SMALL
GASTEIGER

@<TRIPOS>ATOM
      1 N         139.0482  139.9132  166.4055 N.pl3   1  UNL1       -0.3077
      2 C         139.8843  139.6717  167.6272 C.3     1  UNL1        0.0911
      3 C         140.7566  140.7660  168.1673 C.3     1  UNL1        0.0261
      4 C         140.7927  142.1017  167.4857 C.3     1  UNL1        0.0295
      5 C         139.9566  142.3431  166.2640 C.ar    1  UNL1       -0.0054
      6 C         139.9927  143.6789  165.5824 C.ar    1  UNL1        0.0371
      7 C         139.1566  143.9203  164.3607 C.ar    1  UNL1        0.1354
      8 C         138.2843  142.8260  163.8206 C.ar    1  UNL1        0.0414
      9 C         138.2482  141.4903  164.5022 C.ar    1  UNL1        0.0177
     10 C         139.0843  141.2489  165.7239 C.ar    1  UNL1        0.0440
     11 N         139.1927  145.2560  163.6791 N.pl3   1  UNL1       -0.1990
     12 H         138.6327  145.9940  164.0124 H       1  UNL1        0.2985
     13 C         140.0820  145.4673  162.4899 C.2     1  UNL1        0.3224
     14 N         139.5680  146.2085  161.2914 N.2     1  UNL1       -0.0985
     15 H         138.6470  146.5562  161.2853 H       1  UNL1        0.3633
     16 C         141.4853  144.9375  162.4991 C.ar    1  UNL1        0.1114
     17 C         142.5481  145.2738  163.5027 C.ar    1  UNL1        0.0144
     18 C         143.7918  144.5225  163.1302 C.ar    1  UNL1        0.0077
     19 C         143.4976  143.7218  161.8963 C.ar    1  UNL1        0.0357
     20 S         142.0721  143.9783  161.5063 S.2     1  UNL1       -0.0792
     21 C         138.1759  138.8189  165.8654 C.3     1  UNL1        0.0921
     22 C         138.7963  137.5807  165.2892 C.3     1  UNL1        0.0374
     23 C         138.1513  138.1341  162.1385 C.3     1  UNL1        0.0896
     24 N         139.5125  137.9462  162.7400 N.3     1  UNL1       -0.2727
     25 C         140.8161  137.9796  161.9989 C.3     1  UNL1        0.0721
     26 C         141.9184  137.7459  162.9891 C.3     1  UNL1        0.0187
     27 C         141.2959  137.5680  164.3422 C.3     1  UNL1        0.0174
     28 C         139.8090  137.6918  164.1882 C.3     1  UNL1        0.0593
@<TRIPOS>BOND
     1    23    24    1
     2    24    25    1
     3    25    26    1
     4    26    27    1
     5    27    28    1
     6    28    22    1
     7    22    21    1
     8    21     1    1
     9     1     2    1
    10     2     3    1
    11     3     4    1
    12     4     5    1
    13     5     6   ar
    14     6     7   ar
    15     7    11    1
    16    11    13    1
    17    13    14    2
    18    13    16    1
    19    16    17   ar
    20    17    18   ar
    21    18    19   ar
    22    19    20   ar
    23     7     8   ar
    24     8     9   ar
    25     9    10   ar
    26    28    24    1
    27    10     1    1
    28    10     5   ar
    29    20    16   ar
    30    11    12    1
    31    14    15    1
@<TRIPOS>MOLECULE
*****
 28 31 0 0 0
SMALL
GASTEIGER

@<TRIPOS>ATOM
      1 N         138.9596  138.7466  163.6996 N.pl3   1  UNL1       -0.3077
      2 C         138.3987  137.8376  162.6465 C.3     1  UNL1        0.0911
      3 C         137.7263  138.4161  161.4370 C.3     1  UNL1        0.0261
      4 C         137.6147  139.9038  161.2805 C.3     1  UNL1        0.0295
      5 C         138.1755  140.8128  162.3336 C.ar    1  UNL1       -0.0054
      6 C         138.0640  142.3005  162.1772 C.ar    1  UNL1        0.0371
      7 C         138.6248  143.2095  163.2303 C.ar    1  UNL1        0.1354
      8 C         139.2973  142.6309  164.4399 C.ar    1  UNL1        0.0414
      9 C         139.4089  141.1433  164.5963 C.ar    1  UNL1        0.0177
     10 C         138.8480  140.2342  163.5431 C.ar    1  UNL1        0.0440
     11 N         138.5132  144.6972  163.0738 N.pl3   1  UNL1       -0.1990
     12 H         137.7386  145.1749  163.4492 H       1  UNL1        0.2985
     13 C         139.5819  145.4570  162.3454 C.2     1  UNL1        0.3224
     14 N         139.2074  146.5734  161.4163 N.2     1  UNL1       -0.0985
     15 H         138.2603  146.8075  161.2846 H       1  UNL1        0.3633
     16 C         141.0250  145.1003  162.5460 C.ar    1  UNL1        0.1114
     17 C         141.8595  145.4428  163.7444 C.ar    1  UNL1        0.0144
     18 C         143.2372  144.8927  163.5225 C.ar    1  UNL1        0.0077
     19 C         143.2542  144.2101  162.1870 C.ar    1  UNL1        0.0357
     20 S         141.8869  144.3384  161.5834 S.2     1  UNL1       -0.0792
     21 C         139.6321  138.1680  164.9092 C.3     1  UNL1        0.0921
     22 C         140.9049  137.3887  164.7589 C.3     1  UNL1        0.0374
     23 C         142.0553  137.9419  161.7556 C.3     1  UNL1        0.0896
     24 N         142.7117  138.3519  163.0405 N.3     1  UNL1       -0.2727
     25 C         144.0121  139.0881  163.1706 C.3     1  UNL1        0.0721
     26 C         144.2870  139.2888  164.6315 C.3     1  UNL1        0.0187
     27 C         143.1565  138.6766  165.4043 C.3     1  UNL1        0.0174
     28 C         142.1829  138.0976  164.4210 C.3     1  UNL1        0.0593
@<TRIPOS>BOND
     1    23    24    1
     2    24    25    1
     3    25    26    1
     4    26    27    1
     5    27    28    1
     6    28    22    1
     7    22    21    1
     8    21     1    1
     9     1     2    1
    10     2     3    1
    11     3     4    1
    12     4     5    1
    13     5     6   ar
    14     6     7   ar
    15     7    11    1
    16    11    13    1
    17    13    14    2
    18    13    16    1
    19    16    17   ar
    20    17    18   ar
    21    18    19   ar
    22    19    20   ar
    23     7     8   ar
    24     8     9   ar
    25     9    10   ar
    26    28    24    1
    27    10     1    1
    28    10     5   ar
    29    20    16   ar
    30    11    12    1
    31    14    15    1
@<TRIPOS>MOLECULE
*****
 28 31 0 0 0
SMALL
GASTEIGER

@<TRIPOS>ATOM
      1 N         138.6409  139.3764  164.8712 N.pl3   1  UNL1       -0.3077
      2 C         138.7885  138.1321  164.0466 C.3     1  UNL1        0.0911
      3 C         138.8281  138.2246  162.5500 C.3     1  UNL1        0.0261
      4 C         138.7200  139.5613  161.8780 C.3     1  UNL1        0.0295
      5 C         138.5723  140.8055  162.7026 C.ar    1  UNL1       -0.0054
      6 C         138.4643  142.1422  162.0306 C.ar    1  UNL1        0.0371
      7 C         138.3166  143.3864  162.8552 C.ar    1  UNL1        0.1354
      8 C         138.2770  143.2940  164.3519 C.ar    1  UNL1        0.0414
      9 C         138.3851  141.9573  165.0239 C.ar    1  UNL1        0.0177
     10 C         138.5328  140.7131  164.1992 C.ar    1  UNL1        0.0440
     11 N         138.2085  144.7231  162.1832 N.pl3   1  UNL1       -0.1990
     12 H         137.3287  145.0616  161.8992 H       1  UNL1        0.2985
     13 C         139.4408  145.5441  161.9440 C.2     1  UNL1        0.3224
     14 N         139.3335  146.8777  161.2657 N.2     1  UNL1       -0.0985
     15 H         138.4543  147.2141  160.9776 H       1  UNL1        0.3633
     16 C         140.7804  145.0316  162.3829 C.ar    1  UNL1        0.1114
     17 C         141.3815  145.1913  163.7479 C.ar    1  UNL1        0.0144
     18 C         142.7268  144.5277  163.7426 C.ar    1  UNL1        0.0077
     19 C         142.9571  143.9579  162.3743 C.ar    1  UNL1        0.0357
     20 S         141.7542  144.2693  161.5340 S.2     1  UNL1       -0.0792
     21 C         138.6013  139.2840  166.3678 C.3     1  UNL1        0.0921
     22 C         139.8584  139.4718  167.1644 C.3     1  UNL1        0.0374
     23 C         141.4581  142.2887  166.7701 C.3     1  UNL1        0.0896
     24 N         140.6860  141.8762  167.9881 N.3     1  UNL1       -0.2727
     25 C         140.5137  142.6862  169.2388 C.3     1  UNL1        0.0721
     26 C         139.6718  141.8920  170.1931 C.3     1  UNL1        0.0187
     27 C         139.3239  140.5912  169.5321 C.3     1  UNL1        0.0174
     28 C         139.9507  140.5815  168.1694 C.3     1  UNL1        0.0593
@<TRIPOS>BOND
     1    23    24    1
     2    24    25    1
     3    25    26    1
     4    26    27    1
     5    27    28    1
     6    28    22    1
     7    22    21    1
     8    21     1    1
     9     1     2    1
    10     2     3    1
    11     3     4    1
    12     4     5    1
    13     5     6   ar
    14     6     7   ar
    15     7    11    1
    16    11    13    1
    17    13    14    2
    18    13    16    1
    19    16    17   ar
    20    17    18   ar
    21    18    19   ar
    22    19    20   ar
    23     7     8   ar
    24     8     9   ar
    25     9    10   ar
    26    28    24    1
    27    10     1    1
    28    10     5   ar
    29    20    16   ar
    30    11    12    1
    31    14    15    1
@<TRIPOS>MOLECULE
*****
 28 31 0 0 0
SMALL
GASTEIGER

@<TRIPOS>ATOM
      1 N         143.5618  143.2253  164.6822 N.pl3   1  UNL1       -0.3077
      2 C         143.2379  144.4443  163.8704 C.3     1  UNL1        0.0911
      3 C         141.8094  144.8597  163.6784 C.3     1  UNL1        0.0261
      4 C         140.7048  144.0560  164.2981 C.3     1  UNL1        0.0295
      5 C         141.0287  142.8370  165.1099 C.ar    1  UNL1       -0.0054
      6 C         139.9242  142.0333  165.7297 C.ar    1  UNL1        0.0371
      7 C         140.2481  140.8143  166.5414 C.ar    1  UNL1        0.1354
      8 C         141.6766  140.3989  166.7335 C.ar    1  UNL1        0.0414
      9 C         142.7811  141.2026  166.1138 C.ar    1  UNL1        0.0177
     10 C         142.4572  142.4216  165.3020 C.ar    1  UNL1        0.0440
     11 N         139.1435  140.0107  167.1612 N.pl3   1  UNL1       -0.1990
     12 H         138.8305  140.2231  168.0701 H       1  UNL1        0.2985
     13 C         138.5159  138.8835  166.3961 C.2     1  UNL1        0.3224
     14 N         137.3253  138.1659  166.9597 N.2     1  UNL1       -0.0985
     15 H         136.9559  138.4348  167.8317 H       1  UNL1        0.3633
     16 C         139.0788  138.4738  165.0675 C.ar    1  UNL1        0.1114
     17 C         140.2318  137.5398  164.8486 C.ar    1  UNL1        0.0144
     18 C         140.4532  137.4149  163.3702 C.ar    1  UNL1        0.0077
     19 C         139.4368  138.2719  162.6754 C.ar    1  UNL1        0.0357
     20 S         138.5874  138.9263  163.7244 S.2     1  UNL1       -0.0792
     21 C         144.9903  142.8098  164.8743 C.3     1  UNL1        0.0921
     22 C         145.6810  141.9913  163.8241 C.3     1  UNL1        0.0374
     23 C         144.3280  142.2344  160.8644 C.3     1  UNL1        0.0896
     24 N         144.3109  141.0199  161.7446 N.3     1  UNL1       -0.2727
     25 C         143.6690  139.7040  161.4189 C.3     1  UNL1        0.0721
     26 C         143.8941  138.7789  162.5781 C.3     1  UNL1        0.0187
     27 C         144.6752  139.5231  163.6201 C.3     1  UNL1        0.0174
     28 C         144.9328  140.9082  163.1050 C.3     1  UNL1        0.0593
@<TRIPOS>BOND
     1    23    24    1
     2    24    25    1
     3    25    26    1
     4    26    27    1
     5    27    28    1
     6    28    22    1
     7    22    21    1
     8    21     1    1
     9     1     2    1
    10     2     3    1
    11     3     4    1
    12     4     5    1
    13     5     6   ar
    14     6     7   ar
    15     7    11    1
    16    11    13    1
    17    13    14    2
    18    13    16    1
    19    16    17   ar
    20    17    18   ar
    21    18    19   ar
    22    19    20   ar
    23     7     8   ar
    24     8     9   ar
    25     9    10   ar
    26    28    24    1
    27    10     1    1
    28    10     5   ar
    29    20    16   ar
    30    11    12    1
    31    14    15    1
@<TRIPOS>MOLECULE
*****
 28 31 0 0 0
SMALL
GASTEIGER

@<TRIPOS>ATOM
      1 N         144.1140  142.4276  164.6043 N.pl3   1  UNL1       -0.3077
      2 C         145.2362  141.6090  164.0383 C.3     1  UNL1        0.0911
      3 C         145.2197  140.1156  164.1779 C.3     1  UNL1        0.0261
      4 C         144.0809  139.4409  164.8835 C.3     1  UNL1        0.0295
      5 C         142.9587  140.2595  165.4495 C.ar    1  UNL1       -0.0054
      6 C         141.8199  139.5847  166.1552 C.ar    1  UNL1        0.0371
      7 C         140.6977  140.4033  166.7212 C.ar    1  UNL1        0.1354
      8 C         140.7142  141.8968  166.5816 C.ar    1  UNL1        0.0414
      9 C         141.8530  142.5716  165.8760 C.ar    1  UNL1        0.0177
     10 C         142.9753  141.7528  165.3100 C.ar    1  UNL1        0.0440
     11 N         139.5589  139.7286  167.4268 N.pl3   1  UNL1       -0.1990
     12 H         139.5385  139.6977  168.4106 H       1  UNL1        0.2985
     13 C         138.4514  139.1009  166.6335 C.2     1  UNL1        0.3224
     14 N         137.3537  138.3582  167.3358 N.2     1  UNL1       -0.0985
     15 H         137.3601  138.2826  168.3174 H       1  UNL1        0.3633
     16 C         138.4416  139.2161  165.1380 C.ar    1  UNL1        0.1114
     17 C         137.9950  140.4108  164.3486 C.ar    1  UNL1        0.0144
     18 C         138.1540  140.0898  162.8920 C.ar    1  UNL1        0.0077
     19 C         138.6988  138.6967  162.7811 C.ar    1  UNL1        0.0357
     20 S         138.8765  138.1567  164.1693 S.2     1  UNL1       -0.0792
     21 C         144.1305  143.9211  164.4648 C.3     1  UNL1        0.0921
     22 C         143.8335  144.5536  163.1375 C.3     1  UNL1        0.0374
     23 C         142.6032  143.4925  160.3074 C.3     1  UNL1        0.0896
     24 N         141.8475  144.2192  161.3800 N.3     1  UNL1       -0.2727
     25 C         140.3935  144.5858  161.3402 C.3     1  UNL1        0.0721
     26 C         140.0604  145.3002  162.6164 C.3     1  UNL1        0.0187
     27 C         141.3085  145.3751  163.4450 C.3     1  UNL1        0.0174
     28 C         142.4130  144.7070  162.6809 C.3     1  UNL1        0.0593
@<TRIPOS>BOND
     1    23    24    1
     2    24    25    1
     3    25    26    1
     4    26    27    1
     5    27    28    1
     6    28    22    1
     7    22    21    1
     8    21     1    1
     9     1     2    1
    10     2     3    1
    11     3     4    1
    12     4     5    1
    13     5     6   ar
    14     6     7   ar
    15     7    11    1
    16    11    13    1
    17    13    14    2
    18    13    16    1
    19    16    17   ar
    20    17    18   ar
    21    18    19   ar
    22    19    20   ar
    23     7     8   ar
    24     8     9   ar
    25     9    10   ar
    26    28    24    1
    27    10     1    1
    28    10     5   ar
    29    20    16   ar
    30    11    12    1
    31    14    15    1
@<TRIPOS>MOLECULE
*****
 28 31 0 0 0
SMALL
GASTEIGER

@<TRIPOS>ATOM
      1 N         139.2497  139.7545  165.7526 N.pl3   1  UNL1       -0.3077
      2 C         139.1297  138.3936  165.1333 C.3     1  UNL1        0.0911
      3 C         138.7871  138.2590  163.6792 C.3     1  UNL1        0.0261
      4 C         138.5646  139.4852  162.8444 C.3     1  UNL1        0.0295
      5 C         138.6846  140.8460  163.4637 C.ar    1  UNL1       -0.0054
      6 C         138.4620  142.0723  162.6290 C.ar    1  UNL1        0.0371
      7 C         138.5820  143.4331  163.2483 C.ar    1  UNL1        0.1354
      8 C         138.9246  143.5678  164.7025 C.ar    1  UNL1        0.0414
      9 C         139.1472  142.3416  165.5373 C.ar    1  UNL1        0.0177
     10 C         139.0272  140.9807  164.9179 C.ar    1  UNL1        0.0440
     11 N         138.3595  144.6593  162.4135 N.pl3   1  UNL1       -0.1990
     12 H         137.4475  144.9096  162.1397 H       1  UNL1        0.2985
     13 C         139.5263  145.5043  161.9959 C.2     1  UNL1        0.3224
     14 N         139.2945  146.8031  161.2823 N.2     1  UNL1       -0.0985
     15 H         138.3765  147.1010  161.0881 H       1  UNL1        0.3633
     16 C         140.9251  145.0504  162.2919 C.ar    1  UNL1        0.1114
     17 C         141.7498  145.4521  163.4787 C.ar    1  UNL1        0.0144
     18 C         143.0791  144.7651  163.3733 C.ar    1  UNL1        0.0077
     19 C         143.0759  143.9388  162.1214 C.ar    1  UNL1        0.0357
     20 S         141.7446  144.1152  161.4531 S.2     1  UNL1       -0.0792
     21 C         139.5923  139.8892  167.2068 C.3     1  UNL1        0.0921
     22 C         141.0276  139.8850  167.6427 C.3     1  UNL1        0.0374
     23 C         142.7720  138.7757  165.1176 C.3     1  UNL1        0.0896
     24 N         142.8510  140.1530  165.7066 N.3     1  UNL1       -0.2727
     25 C         143.7457  141.2621  165.2384 C.3     1  UNL1        0.0721
     26 C         143.4968  142.4576  166.1097 C.3     1  UNL1        0.0187
     27 C         142.4483  142.0871  167.1164 C.3     1  UNL1        0.0174
     28 C         142.0492  140.6628  166.8673 C.3     1  UNL1        0.0593
@<TRIPOS>BOND
     1    23    24    1
     2    24    25    1
     3    25    26    1
     4    26    27    1
     5    27    28    1
     6    28    22    1
     7    22    21    1
     8    21     1    1
     9     1     2    1
    10     2     3    1
    11     3     4    1
    12     4     5    1
    13     5     6   ar
    14     6     7   ar
    15     7    11    1
    16    11    13    1
    17    13    14    2
    18    13    16    1
    19    16    17   ar
    20    17    18   ar
    21    18    19   ar
    22    19    20   ar
    23     7     8   ar
    24     8     9   ar
    25     9    10   ar
    26    28    24    1
    27    10     1    1
    28    10     5   ar
    29    20    16   ar
    30    11    12    1
    31    14    15    1
@<TRIPOS>MOLECULE
*****
 28 31 0 0 0
SMALL
GASTEIGER

@<TRIPOS>ATOM
      1 N         143.3696  139.7762  163.0201 N.pl3   1  UNL1       -0.3077
      2 C         144.6714  139.7085  163.7621 C.3     1  UNL1        0.0911
      3 C         145.4383  140.9656  164.0474 C.3     1  UNL1        0.0261
      4 C         144.9032  142.2905  163.5908 C.3     1  UNL1        0.0295
      5 C         143.6014  142.3582  162.8487 C.ar    1  UNL1       -0.0054
      6 C         143.0664  143.6830  162.3921 C.ar    1  UNL1        0.0371
      7 C         141.7646  143.7507  161.6501 C.ar    1  UNL1        0.1354
      8 C         140.9977  142.4935  161.3647 C.ar    1  UNL1        0.0414
      9 C         141.5327  141.1686  161.8214 C.ar    1  UNL1        0.0177
     10 C         142.8346  141.1010  162.5634 C.ar    1  UNL1        0.0440
     11 N         141.2296  145.0756  161.1934 N.pl3   1  UNL1       -0.1990
     12 H         141.7014  145.5822  160.4935 H       1  UNL1        0.2985
     13 C         139.9756  145.6285  161.8032 C.2     1  UNL1        0.3224
     14 N         139.3053  146.8210  161.1880 N.2     1  UNL1       -0.0985
     15 H         139.6883  147.2408  160.3841 H       1  UNL1        0.3633
     16 C         139.3921  144.9890  163.0281 C.ar    1  UNL1        0.1114
     17 C         140.0425  144.9121  164.3776 C.ar    1  UNL1        0.0144
     18 C         139.1081  144.1896  165.3021 C.ar    1  UNL1        0.0077
     19 C         137.8801  143.8199  164.5241 C.ar    1  UNL1        0.0357
     20 S         138.0556  144.3140  163.1187 S.2     1  UNL1       -0.0792
     21 C         142.6027  138.5189  162.7347 C.3     1  UNL1        0.0921
     22 C         141.7313  137.9148  163.7957 C.3     1  UNL1        0.0374
     23 C         138.6243  137.9455  162.7982 C.3     1  UNL1        0.0896
     24 N         139.1910  138.7333  163.9421 N.3     1  UNL1       -0.2727
     25 C         138.4289  139.6734  164.8282 C.3     1  UNL1        0.0721
     26 C         139.3861  140.2404  165.8345 C.3     1  UNL1        0.0187
     27 C         140.7397  139.6506  165.5701 C.3     1  UNL1        0.0174
     28 C         140.6191  138.7191  164.4005 C.3     1  UNL1        0.0593
@<TRIPOS>BOND
     1    23    24    1
     2    24    25    1
     3    25    26    1
     4    26    27    1
     5    27    28    1
     6    28    22    1
     7    22    21    1
     8    21     1    1
     9     1     2    1
    10     2     3    1
    11     3     4    1
    12     4     5    1
    13     5     6   ar
    14     6     7   ar
    15     7    11    1
    16    11    13    1
    17    13    14    2
    18    13    16    1
    19    16    17   ar
    20    17    18   ar
    21    18    19   ar
    22    19    20   ar
    23     7     8   ar
    24     8     9   ar
    25     9    10   ar
    26    28    24    1
    27    10     1    1
    28    10     5   ar
    29    20    16   ar
    30    11    12    1
    31    14    15    1
@<TRIPOS>MOLECULE
*****
 28 31 0 0 0
SMALL
GASTEIGER

@<TRIPOS>ATOM
      1 N         141.9983  140.2529  163.5291 N.pl3   1  UNL1       -0.3077
      2 C         143.4304  139.8213  163.4164 C.3     1  UNL1        0.0911
      3 C         144.1473  139.2801  164.6176 C.3     1  UNL1        0.0261
      4 C         143.4321  139.1704  165.9316 C.3     1  UNL1        0.0295
      5 C         141.9999  139.6019  166.0443 C.ar    1  UNL1       -0.0054
      6 C         141.2847  139.4923  167.3582 C.ar    1  UNL1        0.0371
      7 C         139.8526  139.9238  167.4709 C.ar    1  UNL1        0.1354
      8 C         139.1356  140.4651  166.2696 C.ar    1  UNL1        0.0414
      9 C         139.8509  140.5748  164.9557 C.ar    1  UNL1        0.0177
     10 C         141.2831  140.1432  164.8430 C.ar    1  UNL1        0.0440
     11 N         139.1374  139.8141  168.7848 N.pl3   1  UNL1       -0.1990
     12 H         138.2127  139.4775  168.8153 H       1  UNL1        0.2985
     13 C         139.8310  140.2172  170.0522 C.2     1  UNL1        0.3224
     14 N         139.7500  139.3370  171.2641 N.2     1  UNL1       -0.0985
     15 H         139.2416  138.4947  171.2276 H       1  UNL1        0.3633
     16 C         140.6055  141.5006  170.1078 C.ar    1  UNL1        0.1114
     17 C         140.0725  142.8665  169.7917 C.ar    1  UNL1        0.0144
     18 C         141.1866  143.8535  169.9778 C.ar    1  UNL1        0.0077
     19 C         142.4083  143.0974  170.4089 C.ar    1  UNL1        0.0357
     20 S         142.0492  141.6433  170.4893 S.2     1  UNL1       -0.0792
     21 C         141.2813  140.7942  162.3278 C.3     1  UNL1        0.0921
     22 C         141.8111  142.0068  161.6215 C.3     1  UNL1        0.0374
     23 C         139.7935  144.0172  163.2144 C.3     1  UNL1        0.0896
     24 N         141.2866  144.1417  163.1419 N.3     1  UNL1       -0.2727
     25 C         142.1144  145.2123  163.7890 C.3     1  UNL1        0.0721
     26 C         143.5534  144.9499  163.4567 C.3     1  UNL1        0.0187
     27 C         143.6149  143.7172  162.6043 C.3     1  UNL1        0.0174
     28 C         142.2140  143.2177  162.4098 C.3     1  UNL1        0.0593
@<TRIPOS>BOND
     1    23    24    1
     2    24    25    1
     3    25    26    1
     4    26    27    1
     5    27    28    1
     6    28    22    1
     7    22    21    1
     8    21     1    1
     9     1     2    1
    10     2     3    1
    11     3     4    1
    12     4     5    1
    13     5     6   ar
    14     6     7   ar
    15     7    11    1
    16    11    13    1
    17    13    14    2
    18    13    16    1
    19    16    17   ar
    20    17    18   ar
    21    18    19   ar
    22    19    20   ar
    23     7     8   ar
    24     8     9   ar
    25     9    10   ar
    26    28    24    1
    27    10     1    1
    28    10     5   ar
    29    20    16   ar
    30    11    12    1
    31    14    15    1
@<TRIPOS>MOLECULE
*****
 28 31 0 0 0
SMALL
GASTEIGER

@<TRIPOS>ATOM
      1 N         140.0378  140.3752  167.7313 N.pl3   1  UNL1       -0.3077
      2 C         139.7040  141.0586  169.0242 C.3     1  UNL1        0.0911
      3 C         140.5751  142.1689  169.5323 C.3     1  UNL1        0.0261
      4 C         141.7800  142.5959  168.7475 C.3     1  UNL1        0.0295
      5 C         142.1138  141.9125  167.4547 C.ar    1  UNL1       -0.0054
      6 C         143.3187  142.3395  166.6699 C.ar    1  UNL1        0.0371
      7 C         143.6525  141.6562  165.3770 C.ar    1  UNL1        0.1354
      8 C         142.7814  140.5457  164.8689 C.ar    1  UNL1        0.0414
      9 C         141.5765  140.1188  165.6536 C.ar    1  UNL1        0.0177
     10 C         141.2427  140.8022  166.9466 C.ar    1  UNL1        0.0440
     11 N         144.8574  142.0831  164.5923 N.pl3   1  UNL1       -0.1990
     12 H         145.7575  141.9815  164.9780 H       1  UNL1        0.2985
     13 C         144.6910  142.6650  163.2198 C.2     1  UNL1        0.3224
     14 N         145.6595  142.3081  162.1314 N.2     1  UNL1       -0.0985
     15 H         146.4044  141.6920  162.3179 H       1  UNL1        0.3633
     16 C         143.5561  143.6037  162.9357 C.ar    1  UNL1        0.1114
     17 C         143.1347  144.7619  163.7907 C.ar    1  UNL1        0.0144
     18 C         141.9615  145.4231  163.1301 C.ar    1  UNL1        0.0077
     19 C         141.6578  144.6736  161.8668 C.ar    1  UNL1        0.0357
     20 S         142.6433  143.5492  161.7466 S.2     1  UNL1       -0.0792
     21 C         139.1666  139.2648  167.2232 C.3     1  UNL1        0.0921
     22 C         138.1519  139.5376  166.1527 C.3     1  UNL1        0.0374
     23 C         137.5721  141.2483  163.4349 C.3     1  UNL1        0.0896
     24 N         138.1331  139.8587  163.4991 N.3     1  UNL1       -0.2727
     25 C         138.5261  139.0114  162.3254 C.3     1  UNL1        0.0721
     26 C         139.0355  137.7014  162.8492 C.3     1  UNL1        0.0187
     27 C         138.9574  137.7391  164.3467 C.3     1  UNL1        0.0174
     28 C         138.3996  139.0724  164.7484 C.3     1  UNL1        0.0593
@<TRIPOS>BOND
     1    23    24    1
     2    24    25    1
     3    25    26    1
     4    26    27    1
     5    27    28    1
     6    28    22    1
     7    22    21    1
     8    21     1    1
     9     1     2    1
    10     2     3    1
    11     3     4    1
    12     4     5    1
    13     5     6   ar
    14     6     7   ar
    15     7    11    1
    16    11    13    1
    17    13    14    2
    18    13    16    1
    19    16    17   ar
    20    17    18   ar
    21    18    19   ar
    22    19    20   ar
    23     7     8   ar
    24     8     9   ar
    25     9    10   ar
    26    28    24    1
    27    10     1    1
    28    10     5   ar
    29    20    16   ar
    30    11    12    1
    31    14    15    1
