@<TRIPOS>MOLECULE
*****
 27 29 0 0 0
SMALL
GASTEIGER

@<TRIPOS>ATOM
      1 C         140.8399  144.6227  163.3860 C.3     1  UNL1        0.0716
      2 C         141.8689  143.6236  163.8256 C.3     1  UNL1        0.0199
      3 C         141.6518  142.8243  165.0761 C.3     1  UNL1        0.0060
      4 C         140.4058  143.0239  165.8871 C.3     1  UNL1        0.0225
      5 C         139.3769  144.0229  165.4475 C.3     1  UNL1        0.0060
      6 C         139.5939  144.8223  164.1969 C.3     1  UNL1        0.0199
      7 C         140.1887  142.2245  167.1376 C.ar    1  UNL1       -0.0201
      8 C         139.7498  140.7931  167.0460 C.ar    1  UNL1       -0.0010
      9 C         139.5327  139.9937  168.2965 C.ar    1  UNL1        0.0386
     10 C         139.7545  140.6257  169.6387 C.ar    1  UNL1        0.1610
     11 O         139.5375  139.8263  170.8892 O.3     1  UNL1       -0.5034
     12 C         140.1935  142.0571  169.7303 C.ar    1  UNL1        0.1732
     13 F         140.4153  142.6891  171.0724 F       1  UNL1       -0.2010
     14 C         140.4106  142.8566  168.4797 C.ar    1  UNL1        0.0285
     15 H         139.2633  138.9321  170.8320 H       1  UNL1        0.2923
     16 O         139.2286  144.0272  160.9265 O.2     1  UNL1       -0.2751
     17 C         140.2513  145.1243  160.9057 C.2     1  UNL1        0.2228
     18 N         141.0570  145.4220  162.1354 N.am    1  UNL1       -0.3060
     19 H         141.7282  146.1421  162.1218 H       1  UNL1        0.1494
     20 C         140.4684  145.9237  159.6551 C.3     1  UNL1        0.0897
     21 C         140.6883  145.2242  158.3466 C.3     1  UNL1        0.0359
     22 C         140.4214  145.9433  157.0575 C.ar    1  UNL1       -0.0217
     23 C         141.2159  145.6045  155.8312 C.ar    1  UNL1       -0.0043
     24 C         140.9489  146.3236  154.5422 C.ar    1  UNL1       -0.0003
     25 C         139.8875  147.3816  154.4795 C.ar    1  UNL1       -0.0000
     26 C         139.0930  147.7205  155.7058 C.ar    1  UNL1       -0.0003
     27 C         139.3600  147.0014  156.9948 C.ar    1  UNL1       -0.0043
@<TRIPOS>BOND
     1    16    17    2
     2    17    20    1
     3    20    21    1
     4    21    22    1
     5    22    23   ar
     6    23    24   ar
     7    24    25   ar
     8    25    26   ar
     9    26    27   ar
    10    17    18   am
    11     1    18    1
    12     1     2    1
    13     2     3    1
    14     3     4    1
    15     4     7    1
    16     7     8   ar
    17     8     9   ar
    18     9    10   ar
    19    10    11    1
    20    10    12   ar
    21    12    13    1
    22    12    14   ar
    23     4     5    1
    24     5     6    1
    25    27    22   ar
    26     6     1    1
    27    14     7   ar
    28    18    19    1
    29    11    15    1
@<TRIPOS>MOLECULE
*****
 27 29 0 0 0
SMALL
GASTEIGER

@<TRIPOS>ATOM
      1 C         139.2713  139.9733  163.6181 C.3     1  UNL1        0.0716
      2 C         140.3257  140.9853  163.9560 C.3     1  UNL1        0.0199
      3 C         140.5739  141.3607  165.3869 C.3     1  UNL1        0.0060
      4 C         139.7677  140.7242  166.4799 C.3     1  UNL1        0.0225
      5 C         138.7133  139.7122  166.1422 C.3     1  UNL1        0.0060
      6 C         138.4651  139.3367  164.7112 C.3     1  UNL1        0.0199
      7 C         140.0159  141.0996  167.9108 C.ar    1  UNL1       -0.0201
      8 C         139.8790  140.0682  168.9914 C.ar    1  UNL1       -0.0010
      9 C         140.1272  140.4436  170.4223 C.ar    1  UNL1        0.0386
     10 C         140.5122  141.8504  170.7727 C.ar    1  UNL1        0.1610
     11 O         140.7604  142.2257  172.2036 O.3     1  UNL1       -0.5034
     12 C         140.6490  142.8817  169.6922 C.ar    1  UNL1        0.1732
     13 F         141.0340  144.2885  170.0425 F       1  UNL1       -0.2010
     14 C         140.4009  142.5063  168.2612 C.ar    1  UNL1        0.0285
     15 H         140.6749  141.5815  172.8786 H       1  UNL1        0.2923
     16 O         137.2269  141.4664  162.0087 O.2     1  UNL1       -0.2751
     17 C         138.0009  140.3444  161.3825 C.2     1  UNL1        0.2228
     18 N         139.0232  139.5979  162.1873 N.am    1  UNL1       -0.3060
     19 H         139.5312  138.8615  161.7763 H       1  UNL1        0.1494
     20 C         137.7527  139.9691  159.9516 C.3     1  UNL1        0.0897
     21 C         138.6325  140.5192  158.8684 C.3     1  UNL1        0.0359
     22 C         139.5604  141.6604  159.1631 C.ar    1  UNL1       -0.0217
     23 C         140.9703  141.3881  159.5963 C.ar    1  UNL1       -0.0043
     24 C         141.8981  142.5293  159.8909 C.ar    1  UNL1       -0.0003
     25 C         141.4158  143.9429  159.7522 C.ar    1  UNL1       -0.0000
     26 C         140.0058  144.2153  159.3190 C.ar    1  UNL1       -0.0003
     27 C         139.0781  143.0740  159.0244 C.ar    1  UNL1       -0.0043
@<TRIPOS>BOND
     1    16    17    2
     2    17    20    1
     3    20    21    1
     4    21    22    1
     5    22    23   ar
     6    23    24   ar
     7    24    25   ar
     8    25    26   ar
     9    26    27   ar
    10    17    18   am
    11     1    18    1
    12     1     2    1
    13     2     3    1
    14     3     4    1
    15     4     7    1
    16     7     8   ar
    17     8     9   ar
    18     9    10   ar
    19    10    11    1
    20    10    12   ar
    21    12    13    1
    22    12    14   ar
    23     4     5    1
    24     5     6    1
    25    27    22   ar
    26     6     1    1
    27    14     7   ar
    28    18    19    1
    29    11    15    1
@<TRIPOS>MOLECULE
*****
 27 29 0 0 0
SMALL
GASTEIGER

@<TRIPOS>ATOM
      1 C         139.4329  139.9197  163.5177 C.3     1  UNL1        0.0716
      2 C         138.5731  139.3083  164.5840 C.3     1  UNL1        0.0199
      3 C         138.7680  139.6976  166.0194 C.3     1  UNL1        0.0060
      4 C         139.8226  140.6983  166.3886 C.3     1  UNL1        0.0225
      5 C         140.6824  141.3097  165.3223 C.3     1  UNL1        0.0060
      6 C         140.4876  140.9204  163.8869 C.3     1  UNL1        0.0199
      7 C         140.0175  141.0877  167.8240 C.ar    1  UNL1       -0.0201
      8 C         139.8334  140.0685  168.9092 C.ar    1  UNL1       -0.0010
      9 C         140.0283  140.4579  170.3446 C.ar    1  UNL1        0.0386
     10 C         140.4072  141.8663  170.6948 C.ar    1  UNL1        0.1610
     11 O         140.6021  142.2556  172.1303 O.3     1  UNL1       -0.5034
     12 C         140.5913  142.8854  169.6097 C.ar    1  UNL1        0.1732
     13 F         140.9702  144.2939  169.9600 F       1  UNL1       -0.2010
     14 C         140.3964  142.4961  168.1743 C.ar    1  UNL1        0.0285
     15 H         140.4871  141.6190  172.8082 H       1  UNL1        0.2923
     16 O         137.3042  141.2531  161.8776 O.2     1  UNL1       -0.2751
     17 C         138.1737  140.1971  161.2623 C.2     1  UNL1        0.2228
     18 N         139.2381  139.5303  162.0823 N.am    1  UNL1       -0.3060
     19 H         139.8088  138.8372  161.6784 H       1  UNL1        0.1494
     20 C         137.9788  139.8077  159.8268 C.3     1  UNL1        0.0897
     21 C         138.9771  140.2345  158.7918 C.3     1  UNL1        0.0359
     22 C         140.0743  139.2992  158.3775 C.ar    1  UNL1       -0.0217
     23 C         141.3918  139.3247  159.0940 C.ar    1  UNL1       -0.0043
     24 C         142.4890  138.3895  158.6797 C.ar    1  UNL1       -0.0003
     25 C         142.2686  137.4289  157.5489 C.ar    1  UNL1       -0.0000
     26 C         140.9510  137.4035  156.8324 C.ar    1  UNL1       -0.0003
     27 C         139.8539  138.3386  157.2467 C.ar    1  UNL1       -0.0043
@<TRIPOS>BOND
     1    16    17    2
     2    17    20    1
     3    20    21    1
     4    21    22    1
     5    22    23   ar
     6    23    24   ar
     7    24    25   ar
     8    25    26   ar
     9    26    27   ar
    10    17    18   am
    11     1    18    1
    12     1     2    1
    13     2     3    1
    14     3     4    1
    15     4     7    1
    16     7     8   ar
    17     8     9   ar
    18     9    10   ar
    19    10    11    1
    20    10    12   ar
    21    12    13    1
    22    12    14   ar
    23     4     5    1
    24     5     6    1
    25    27    22   ar
    26     6     1    1
    27    14     7   ar
    28    18    19    1
    29    11    15    1
@<TRIPOS>MOLECULE
*****
 27 29 0 0 0
SMALL
GASTEIGER

@<TRIPOS>ATOM
      1 C         140.8469  143.1309  163.2558 C.3     1  UNL1        0.0716
      2 C         139.7378  143.4311  164.2201 C.3     1  UNL1        0.0199
      3 C         139.9602  143.2654  165.6942 C.3     1  UNL1        0.0060
      4 C         141.2917  142.7995  166.2041 C.3     1  UNL1        0.0225
      5 C         142.4008  142.4993  165.2399 C.3     1  UNL1        0.0060
      6 C         142.1784  142.6651  163.7657 C.3     1  UNL1        0.0199
      7 C         141.5141  142.6338  167.6782 C.ar    1  UNL1       -0.0201
      8 C         142.8427  142.1589  168.1876 C.ar    1  UNL1       -0.0010
      9 C         143.0652  141.9932  169.6617 C.ar    1  UNL1        0.0386
     10 C         141.9590  142.3023  170.6265 C.ar    1  UNL1        0.1610
     11 O         142.1815  142.1365  172.1007 O.3     1  UNL1       -0.5034
     12 C         140.6304  142.7771  170.1172 C.ar    1  UNL1        0.1732
     13 F         139.5242  143.0861  171.0820 F       1  UNL1       -0.2010
     14 C         140.4079  142.9428  168.6430 C.ar    1  UNL1        0.0285
     15 H         143.0114  141.8399  172.4188 H       1  UNL1        0.2923
     16 O         140.5498  145.8761  162.0831 O.2     1  UNL1       -0.2751
     17 C         140.4759  144.6693  161.1953 C.2     1  UNL1        0.2228
     18 N         140.6245  143.2967  161.7817 N.am    1  UNL1       -0.3060
     19 H         140.5761  142.5046  161.1991 H       1  UNL1        0.1494
     20 C         140.2535  144.8351  159.7212 C.3     1  UNL1        0.0897
     21 C         141.4130  145.1292  158.8161 C.3     1  UNL1        0.0359
     22 C         141.1694  145.5314  157.3917 C.ar    1  UNL1       -0.0217
     23 C         142.0750  145.0310  156.3057 C.ar    1  UNL1       -0.0043
     24 C         141.8314  145.4332  154.8814 C.ar    1  UNL1       -0.0003
     25 C         140.6822  146.3359  154.5430 C.ar    1  UNL1       -0.0000
     26 C         139.7766  146.8364  155.6290 C.ar    1  UNL1       -0.0003
     27 C         140.0202  146.4342  157.0534 C.ar    1  UNL1       -0.0043
@<TRIPOS>BOND
     1    16    17    2
     2    17    20    1
     3    20    21    1
     4    21    22    1
     5    22    23   ar
     6    23    24   ar
     7    24    25   ar
     8    25    26   ar
     9    26    27   ar
    10    17    18   am
    11     1    18    1
    12     1     2    1
    13     2     3    1
    14     3     4    1
    15     4     7    1
    16     7     8   ar
    17     8     9   ar
    18     9    10   ar
    19    10    11    1
    20    10    12   ar
    21    12    13    1
    22    12    14   ar
    23     4     5    1
    24     5     6    1
    25    27    22   ar
    26     6     1    1
    27    14     7   ar
    28    18    19    1
    29    11    15    1
@<TRIPOS>MOLECULE
*****
 27 29 0 0 0
SMALL
GASTEIGER

@<TRIPOS>ATOM
      1 C         142.9596  139.4636  163.8789 C.3     1  UNL1        0.0716
      2 C         143.3835  138.6900  165.0921 C.3     1  UNL1        0.0199
      3 C         142.9641  139.1475  166.4577 C.3     1  UNL1        0.0060
      4 C         142.1208  140.3786  166.6100 C.3     1  UNL1        0.0225
      5 C         141.6969  141.1521  165.3969 C.3     1  UNL1        0.0060
      6 C         142.1163  140.6946  164.0312 C.3     1  UNL1        0.0199
      7 C         141.7014  140.8361  167.9756 C.ar    1  UNL1       -0.0201
      8 C         141.5182  139.8358  169.0783 C.ar    1  UNL1       -0.0010
      9 C         141.0988  140.2933  170.4439 C.ar    1  UNL1        0.0386
     10 C         140.8625  141.7511  170.7067 C.ar    1  UNL1        0.1610
     11 O         140.4431  142.2085  172.0724 O.3     1  UNL1       -0.5034
     12 C         141.0457  142.7513  169.6041 C.ar    1  UNL1        0.1732
     13 F         140.8094  144.2091  169.8669 F       1  UNL1       -0.2010
     14 C         141.4651  142.2938  168.2384 C.ar    1  UNL1        0.0285
     15 H         140.3287  141.5837  172.7612 H       1  UNL1        0.2923
     16 O         141.3749  137.3539  162.4514 O.2     1  UNL1       -0.2751
     17 C         142.5867  137.9512  161.7996 C.2     1  UNL1        0.2228
     18 N         143.3790  139.0060  162.5133 N.am    1  UNL1       -0.3060
     19 H         144.1743  139.3981  162.0855 H       1  UNL1        0.1494
     20 C         143.0060  137.4937  160.4340 C.3     1  UNL1        0.0897
     21 C         142.6966  138.3368  159.2326 C.3     1  UNL1        0.0359
     22 C         142.0088  137.7285  158.0464 C.ar    1  UNL1       -0.0217
     23 C         140.6142  138.1506  157.6902 C.ar    1  UNL1       -0.0043
     24 C         139.9264  137.5424  156.5041 C.ar    1  UNL1       -0.0003
     25 C         140.6332  136.5120  155.6742 C.ar    1  UNL1       -0.0000
     26 C         142.0278  136.0898  156.0304 C.ar    1  UNL1       -0.0003
     27 C         142.7156  136.6981  157.2165 C.ar    1  UNL1       -0.0043
@<TRIPOS>BOND
     1    16    17    2
     2    17    20    1
     3    20    21    1
     4    21    22    1
     5    22    23   ar
     6    23    24   ar
     7    24    25   ar
     8    25    26   ar
     9    26    27   ar
    10    17    18   am
    11     1    18    1
    12     1     2    1
    13     2     3    1
    14     3     4    1
    15     4     7    1
    16     7     8   ar
    17     8     9   ar
    18     9    10   ar
    19    10    11    1
    20    10    12   ar
    21    12    13    1
    22    12    14   ar
    23     4     5    1
    24     5     6    1
    25    27    22   ar
    26     6     1    1
    27    14     7   ar
    28    18    19    1
    29    11    15    1
@<TRIPOS>MOLECULE
*****
 27 29 0 0 0
SMALL
GASTEIGER

@<TRIPOS>ATOM
      1 C         141.7564  138.0688  163.7228 C.3     1  UNL1        0.0716
      2 C         142.8709  138.4088  164.6674 C.3     1  UNL1        0.0199
      3 C         142.5742  139.1305  165.9485 C.3     1  UNL1        0.0060
      4 C         141.1631  139.5122  166.2849 C.3     1  UNL1        0.0225
      5 C         140.0487  139.1721  165.3403 C.3     1  UNL1        0.0060
      6 C         140.3453  138.4504  164.0592 C.3     1  UNL1        0.0199
      7 C         140.8665  140.2339  167.5660 C.ar    1  UNL1       -0.0201
      8 C         141.8387  141.2434  168.1006 C.ar    1  UNL1       -0.0010
      9 C         141.5421  141.9651  169.3816 C.ar    1  UNL1        0.0386
     10 C         140.2732  141.6773  170.1281 C.ar    1  UNL1        0.1610
     11 O         139.9766  142.3990  171.4092 O.3     1  UNL1       -0.5034
     12 C         139.3011  140.6678  169.5936 C.ar    1  UNL1        0.1732
     13 F         138.0323  140.3800  170.3401 F       1  UNL1       -0.2010
     14 C         139.5977  139.9460  168.3125 C.ar    1  UNL1        0.0285
     15 H         140.5839  143.0296  171.7431 H       1  UNL1        0.2923
     16 O         142.9215  139.5610  161.3957 O.2     1  UNL1       -0.2751
     17 C         142.6356  138.0932  161.2782 C.2     1  UNL1        0.2228
     18 N         142.0530  137.3471  162.4417 N.am    1  UNL1       -0.3060
     19 H         141.8654  136.3837  162.3646 H       1  UNL1        0.1494
     20 C         142.9323  137.3715  159.9970 C.3     1  UNL1        0.0897
     21 C         142.5975  138.0100  158.6817 C.3     1  UNL1        0.0359
     22 C         142.1391  137.1628  157.5318 C.ar    1  UNL1       -0.0217
     23 C         142.9758  136.0057  157.0724 C.ar    1  UNL1       -0.0043
     24 C         142.5174  135.1585  155.9226 C.ar    1  UNL1       -0.0003
     25 C         141.2223  135.4684  155.2321 C.ar    1  UNL1       -0.0000
     26 C         140.3856  136.6255  155.6915 C.ar    1  UNL1       -0.0003
     27 C         140.8440  137.4727  156.8414 C.ar    1  UNL1       -0.0043
@<TRIPOS>BOND
     1    16    17    2
     2    17    20    1
     3    20    21    1
     4    21    22    1
     5    22    23   ar
     6    23    24   ar
     7    24    25   ar
     8    25    26   ar
     9    26    27   ar
    10    17    18   am
    11     1    18    1
    12     1     2    1
    13     2     3    1
    14     3     4    1
    15     4     7    1
    16     7     8   ar
    17     8     9   ar
    18     9    10   ar
    19    10    11    1
    20    10    12   ar
    21    12    13    1
    22    12    14   ar
    23     4     5    1
    24     5     6    1
    25    27    22   ar
    26     6     1    1
    27    14     7   ar
    28    18    19    1
    29    11    15    1
@<TRIPOS>MOLECULE
*****
 27 29 0 0 0
SMALL
GASTEIGER

@<TRIPOS>ATOM
      1 C         142.4155  138.0873  163.0809 C.3     1  UNL1        0.0716
      2 C         141.0784  137.7637  163.6789 C.3     1  UNL1        0.0199
      3 C         140.7463  138.2247  165.0671 C.3     1  UNL1        0.0060
      4 C         141.7513  139.0093  165.8574 C.3     1  UNL1        0.0225
      5 C         143.0883  139.3329  165.2594 C.3     1  UNL1        0.0060
      6 C         143.4204  138.8719  163.8711 C.3     1  UNL1        0.0199
      7 C         141.4192  139.4702  167.2456 C.ar    1  UNL1       -0.0201
      8 C         140.0308  139.9374  167.5688 C.ar    1  UNL1       -0.0010
      9 C         139.6988  140.3983  168.9570 C.ar    1  UNL1        0.0386
     10 C         140.7550  140.3922  170.0221 C.ar    1  UNL1        0.1610
     11 O         140.4228  140.8533  171.4103 O.3     1  UNL1       -0.5034
     12 C         142.1432  139.9252  169.6989 C.ar    1  UNL1        0.1732
     13 F         143.1994  139.9191  170.7640 F       1  UNL1       -0.2010
     14 C         142.4754  139.4642  168.3107 C.ar    1  UNL1        0.0285
     15 H         139.5556  141.1450  171.6122 H       1  UNL1        0.2923
     16 O         141.9448  139.9075  160.7432 O.2     1  UNL1       -0.2751
     17 C         142.5122  138.5364  160.5238 C.2     1  UNL1        0.2228
     18 N         142.7476  137.6263  161.6927 N.am    1  UNL1       -0.3060
     19 H         143.1200  136.7264  161.5487 H       1  UNL1        0.1494
     20 C         142.8443  138.0755  159.1355 C.3     1  UNL1        0.0897
     21 C         141.7821  138.0589  158.0766 C.3     1  UNL1        0.0359
     22 C         141.7896  136.9907  157.0234 C.ar    1  UNL1       -0.0217
     23 C         142.9240  136.0116  156.9563 C.ar    1  UNL1       -0.0043
     24 C         142.9314  134.9435  155.9032 C.ar    1  UNL1       -0.0003
     25 C         141.8045  134.8546  154.9172 C.ar    1  UNL1       -0.0000
     26 C         140.6701  135.8337  154.9843 C.ar    1  UNL1       -0.0003
     27 C         140.6627  136.9017  156.0374 C.ar    1  UNL1       -0.0043
@<TRIPOS>BOND
     1    16    17    2
     2    17    20    1
     3    20    21    1
     4    21    22    1
     5    22    23   ar
     6    23    24   ar
     7    24    25   ar
     8    25    26   ar
     9    26    27   ar
    10    17    18   am
    11     1    18    1
    12     1     2    1
    13     2     3    1
    14     3     4    1
    15     4     7    1
    16     7     8   ar
    17     8     9   ar
    18     9    10   ar
    19    10    11    1
    20    10    12   ar
    21    12    13    1
    22    12    14   ar
    23     4     5    1
    24     5     6    1
    25    27    22   ar
    26     6     1    1
    27    14     7   ar
    28    18    19    1
    29    11    15    1
@<TRIPOS>MOLECULE
*****
 27 29 0 0 0
SMALL
GASTEIGER

@<TRIPOS>ATOM
      1 C         139.1677  139.9310  163.6447 C.3     1  UNL1        0.0716
      2 C         138.5399  139.1480  164.7595 C.3     1  UNL1        0.0199
      3 C         138.8047  139.5295  166.1858 C.3     1  UNL1        0.0060
      4 C         139.6974  140.6940  166.4973 C.3     1  UNL1        0.0225
      5 C         140.3252  141.4770  165.3825 C.3     1  UNL1        0.0060
      6 C         140.0604  141.0955  163.9562 C.3     1  UNL1        0.0199
      7 C         139.9622  141.0756  167.9235 C.ar    1  UNL1       -0.0201
      8 C         139.7632  140.0697  169.0184 C.ar    1  UNL1       -0.0010
      9 C         140.0280  140.4512  170.4446 C.ar    1  UNL1        0.0386
     10 C         140.4919  141.8386  170.7761 C.ar    1  UNL1        0.1610
     11 O         140.7567  142.2202  172.2025 O.3     1  UNL1       -0.5034
     12 C         140.6909  142.8445  169.6814 C.ar    1  UNL1        0.1732
     13 F         141.1548  144.2320  170.0129 F       1  UNL1       -0.2010
     14 C         140.4261  142.4630  168.2550 C.ar    1  UNL1        0.0285
     15 H         140.6324  141.5918  172.8863 H       1  UNL1        0.2923
     16 O         137.1154  141.4271  162.0481 O.2     1  UNL1       -0.2751
     17 C         137.8767  140.2975  161.4201 C.2     1  UNL1        0.2228
     18 N         138.9029  139.5494  162.2184 N.am    1  UNL1       -0.3060
     19 H         139.4026  138.8080  161.8063 H       1  UNL1        0.1494
     20 C         137.6118  139.9159  159.9938 C.3     1  UNL1        0.0897
     21 C         138.6759  140.1120  158.9550 C.3     1  UNL1        0.0359
     22 C         138.4312  141.0308  157.7948 C.ar    1  UNL1       -0.0217
     23 C         139.5389  141.9024  157.2817 C.ar    1  UNL1       -0.0043
     24 C         139.2942  142.8211  156.1215 C.ar    1  UNL1       -0.0003
     25 C         137.9417  142.8682  155.4744 C.ar    1  UNL1       -0.0000
     26 C         136.8340  141.9966  155.9875 C.ar    1  UNL1       -0.0003
     27 C         137.0788  141.0779  157.1477 C.ar    1  UNL1       -0.0043
@<TRIPOS>BOND
     1    16    17    2
     2    17    20    1
     3    20    21    1
     4    21    22    1
     5    22    23   ar
     6    23    24   ar
     7    24    25   ar
     8    25    26   ar
     9    26    27   ar
    10    17    18   am
    11     1    18    1
    12     1     2    1
    13     2     3    1
    14     3     4    1
    15     4     7    1
    16     7     8   ar
    17     8     9   ar
    18     9    10   ar
    19    10    11    1
    20    10    12   ar
    21    12    13    1
    22    12    14   ar
    23     4     5    1
    24     5     6    1
    25    27    22   ar
    26     6     1    1
    27    14     7   ar
    28    18    19    1
    29    11    15    1
@<TRIPOS>MOLECULE
*****
 27 29 0 0 0
SMALL
GASTEIGER

@<TRIPOS>ATOM
      1 C         142.5295  139.5348  163.3936 C.3     1  UNL1        0.0716
      2 C         143.4380  138.9436  164.4306 C.3     1  UNL1        0.0199
      3 C         143.1015  139.0769  165.8862 C.3     1  UNL1        0.0060
      4 C         141.8566  139.8013  166.3050 C.3     1  UNL1        0.0225
      5 C         140.9481  140.3924  165.2681 C.3     1  UNL1        0.0060
      6 C         141.2845  140.2592  163.8124 C.3     1  UNL1        0.0199
      7 C         141.5201  139.9346  167.7607 C.ar    1  UNL1       -0.0201
      8 C         142.5899  139.7567  168.7971 C.ar    1  UNL1       -0.0010
      9 C         142.2535  139.8900  170.2527 C.ar    1  UNL1        0.0386
     10 C         140.8473  140.2011  170.6721 C.ar    1  UNL1        0.1610
     11 O         140.5109  140.3344  172.1278 O.3     1  UNL1       -0.5034
     12 C         139.7775  140.3789  169.6358 C.ar    1  UNL1        0.1732
     13 F         138.3714  140.6900  170.0551 F       1  UNL1       -0.2010
     14 C         140.1140  140.2457  168.1800 C.ar    1  UNL1        0.0285
     15 H         141.1791  140.2233  172.7752 H       1  UNL1        0.2923
     16 O         141.2155  137.4049  161.7393 O.2     1  UNL1       -0.2751
     17 C         142.2089  138.3366  161.1108 C.2     1  UNL1        0.2228
     18 N         142.8659  139.4015  161.9379 N.am    1  UNL1       -0.3060
     19 H         143.5179  140.0130  161.5254 H       1  UNL1        0.1494
     20 C         142.5453  138.2032  159.6551 C.3     1  UNL1        0.0897
     21 C         142.2036  139.3099  158.7019 C.3     1  UNL1        0.0359
     22 C         143.2794  140.2276  158.2014 C.ar    1  UNL1       -0.0217
     23 C         143.6834  141.4226  159.0131 C.ar    1  UNL1       -0.0043
     24 C         144.7592  142.3402  158.5126 C.ar    1  UNL1       -0.0003
     25 C         145.4309  142.0630  157.2004 C.ar    1  UNL1       -0.0000
     26 C         145.0270  140.8680  156.3887 C.ar    1  UNL1       -0.0003
     27 C         143.9512  139.9504  156.8892 C.ar    1  UNL1       -0.0043
@<TRIPOS>BOND
     1    16    17    2
     2    17    20    1
     3    20    21    1
     4    21    22    1
     5    22    23   ar
     6    23    24   ar
     7    24    25   ar
     8    25    26   ar
     9    26    27   ar
    10    17    18   am
    11     1    18    1
    12     1     2    1
    13     2     3    1
    14     3     4    1
    15     4     7    1
    16     7     8   ar
    17     8     9   ar
    18     9    10   ar
    19    10    11    1
    20    10    12   ar
    21    12    13    1
    22    12    14   ar
    23     4     5    1
    24     5     6    1
    25    27    22   ar
    26     6     1    1
    27    14     7   ar
    28    18    19    1
    29    11    15    1
