@<TRIPOS>MOLECULE
*****
 28 31 0 0 0
SMALL
GASTEIGER

@<TRIPOS>ATOM
      1 C         141.8832  140.2674  166.4188 C.2     1  UNL1        0.0025
      2 C         142.4186  141.0444  167.5849 C.2     1  UNL1        0.0130
      3 C         141.5842  141.2138  168.8199 C.3     1  UNL1        0.1542
      4 C         142.9539  141.8213  168.7510 C.3     1  UNL1        0.0614
      5 C         143.4893  142.5982  169.9171 C.3     1  UNL1        0.0725
      6 N         142.6549  142.7676  171.1520 N.3     1  UNL1       -0.2972
      7 C         141.2852  142.1601  171.2209 C.3     1  UNL1        0.0725
      8 C         140.7499  141.3832  170.0549 C.3     1  UNL1        0.0614
      9 O         140.2144  140.6063  168.8887 O.3     1  UNL1       -0.4785
     10 C         139.6791  139.8294  167.7227 C.ar    1  UNL1        0.1386
     11 C         138.3093  139.2219  167.7915 C.ar    1  UNL1        0.0369
     12 C         137.7739  138.4450  166.6254 C.ar    1  UNL1        0.0031
     13 C         138.6083  138.2755  165.3905 C.ar    1  UNL1        0.0002
     14 C         139.9780  138.8830  165.3216 C.ar    1  UNL1        0.0030
     15 C         140.5134  139.6600  166.4877 C.ar    1  UNL1        0.0338
     16 H         142.5395  143.7711  171.2940 H       1  UNL1        0.1233
     17 C         143.5518  140.3108  162.9146 C.ar    1  UNL1        0.0830
     18 C         142.4803  140.7646  163.8612 C.ar    1  UNL1        0.0115
     19 C         142.7175  140.0980  165.1838 C.ar    1  UNL1        0.0070
     20 C         143.9356  139.2323  165.0547 C.ar    1  UNL1        0.0356
     21 S         144.4512  139.3638  163.6522 S.2     1  UNL1       -0.0819
     22 N         144.3474  142.0404  161.1467 N.am    1  UNL1       -0.2757
     23 C         143.6981  140.7305  161.4819 C.2     1  UNL1        0.2550
     24 O         143.1950  139.8401  160.3845 O.2     1  UNL1       -0.2694
     25 C         143.3519  143.1297  159.0083 C.3     1  UNL1        0.0233
     26 C         144.4937  142.4600  159.7141 C.3     1  UNL1        0.0938
     27 C         144.8504  142.9307  162.2441 C.3     1  UNL1        0.0938
     28 C         144.0535  144.1313  162.6605 C.3     1  UNL1        0.0233
@<TRIPOS>BOND
     1    25    26    1
     2    26    22    1
     3    22    27    1
     4    27    28    1
     5    22    23   am
     6    23    24    2
     7    23    17    1
     8    17    18   ar
     9    18    19   ar
    10    19     1    1
    11     1     2    2
    12     2     3    1
    13     3     4    1
    14     4     5    1
    15     5     6    1
    16     6     7    1
    17     7     8    1
    18     3     9    1
    19     9    10    1
    20    10    11   ar
    21    11    12   ar
    22    12    13   ar
    23    13    14   ar
    24    14    15   ar
    25    19    20   ar
    26    20    21   ar
    27    21    17   ar
    28    15     1    1
    29     8     3    1
    30    15    10   ar
    31     6    16    1
@<TRIPOS>MOLECULE
*****
 28 31 0 0 0
SMALL
GASTEIGER

@<TRIPOS>ATOM
      1 C         140.8153  142.0559  166.5051 C.2     1  UNL1        0.0025
      2 C         141.4194  142.4045  167.8331 C.2     1  UNL1        0.0130
      3 C         141.0352  141.6294  169.0585 C.3     1  UNL1        0.1542
      4 C         142.0235  142.7531  169.1611 C.3     1  UNL1        0.0614
      5 C         142.6275  143.1017  170.4890 C.3     1  UNL1        0.0725
      6 N         142.2433  142.3266  171.7144 N.3     1  UNL1       -0.2972
      7 C         141.2551  141.2029  171.6118 C.3     1  UNL1        0.0725
      8 C         140.6510  140.8543  170.2839 C.3     1  UNL1        0.0614
      9 O         140.0469  140.5056  168.9558 O.3     1  UNL1       -0.4785
     10 C         139.4428  140.1571  167.6279 C.ar    1  UNL1        0.1386
     11 C         138.4545  139.0333  167.5252 C.ar    1  UNL1        0.0369
     12 C         137.8504  138.6847  166.1973 C.ar    1  UNL1        0.0031
     13 C         138.2346  139.4598  164.9719 C.ar    1  UNL1        0.0002
     14 C         139.2229  140.5836  165.0745 C.ar    1  UNL1        0.0030
     15 C         139.8270  140.9322  166.4025 C.ar    1  UNL1        0.0338
     16 H         141.8580  142.9979  172.3787 H       1  UNL1        0.1233
     17 C         142.3363  143.5292  163.2521 C.ar    1  UNL1        0.0830
     18 C         142.3081  142.4863  164.3299 C.ar    1  UNL1        0.0115
     19 C         141.1995  142.8310  165.2797 C.ar    1  UNL1        0.0070
     20 C         140.5425  144.0870  164.7889 C.ar    1  UNL1        0.0356
     21 S         141.2451  144.5185  163.5358 S.2     1  UNL1       -0.0819
     22 N         142.9675  142.8343  160.8296 N.am    1  UNL1       -0.2757
     23 C         143.2885  143.5747  162.0940 C.2     1  UNL1        0.2550
     24 O         144.5617  144.3607  162.2003 O.2     1  UNL1       -0.2694
     25 C         143.4198  143.2369  158.3031 C.3     1  UNL1        0.0233
     26 C         143.9198  142.8798  159.6715 C.3     1  UNL1        0.0938
     27 C         141.6944  142.0483  160.7234 C.3     1  UNL1        0.0938
     28 C         141.6849  140.5867  161.0603 C.3     1  UNL1        0.0233
@<TRIPOS>BOND
     1    25    26    1
     2    26    22    1
     3    22    27    1
     4    27    28    1
     5    22    23   am
     6    23    24    2
     7    23    17    1
     8    17    18   ar
     9    18    19   ar
    10    19     1    1
    11     1     2    2
    12     2     3    1
    13     3     4    1
    14     4     5    1
    15     5     6    1
    16     6     7    1
    17     7     8    1
    18     3     9    1
    19     9    10    1
    20    10    11   ar
    21    11    12   ar
    22    12    13   ar
    23    13    14   ar
    24    14    15   ar
    25    19    20   ar
    26    20    21   ar
    27    21    17   ar
    28    15     1    1
    29     8     3    1
    30    15    10   ar
    31     6    16    1
@<TRIPOS>MOLECULE
*****
 28 31 0 0 0
SMALL
GASTEIGER

@<TRIPOS>ATOM
      1 C         140.6798  142.1129  166.1672 C.2     1  UNL1        0.0025
      2 C         140.4521  142.4510  167.6108 C.2     1  UNL1        0.0130
      3 C         141.1174  141.6420  168.6845 C.3     1  UNL1        0.1542
      4 C         140.2244  142.7890  169.0543 C.3     1  UNL1        0.0614
      5 C         139.9968  143.1271  170.4978 C.3     1  UNL1        0.0725
      6 N         140.6621  142.3181  171.5716 N.3     1  UNL1       -0.2972
      7 C         141.5551  141.1710  171.2018 C.3     1  UNL1        0.0725
      8 C         141.7827  140.8330  169.7582 C.3     1  UNL1        0.0614
      9 O         142.0104  140.4948  168.3146 O.3     1  UNL1       -0.4785
     10 C         142.2381  140.1568  166.8711 C.ar    1  UNL1        0.1386
     11 C         143.1311  139.0097  166.5012 C.ar    1  UNL1        0.0369
     12 C         143.3588  138.6716  165.0577 C.ar    1  UNL1        0.0031
     13 C         142.6935  139.4806  163.9840 C.ar    1  UNL1        0.0002
     14 C         141.8005  140.6277  164.3538 C.ar    1  UNL1        0.0030
     15 C         141.5728  140.9658  165.7974 C.ar    1  UNL1        0.0338
     16 H         139.9184  141.9358  172.1557 H       1  UNL1        0.1233
     17 C         139.6624  144.3446  163.1589 C.ar    1  UNL1        0.0830
     18 C         140.7103  143.6851  164.0057 C.ar    1  UNL1        0.0115
     19 C         140.0145  142.9219  165.0934 C.ar    1  UNL1        0.0070
     20 C         138.5366  143.1097  164.9190 C.ar    1  UNL1        0.0356
     21 S         138.3190  143.9890  163.7234 S.2     1  UNL1       -0.0819
     22 N         140.0694  144.5827  160.6040 N.am    1  UNL1       -0.2757
     23 C         139.9139  145.2082  161.9585 C.2     1  UNL1        0.2550
     24 O         140.0099  146.6972  162.1125 O.2     1  UNL1       -0.2694
     25 C         141.5033  145.1772  158.5205 C.3     1  UNL1        0.0233
     26 C         140.3209  145.4463  159.4036 C.3     1  UNL1        0.0938
     27 C         139.9735  143.0937  160.4500 C.3     1  UNL1        0.0938
     28 C         138.6533  142.4560  160.1332 C.3     1  UNL1        0.0233
@<TRIPOS>BOND
     1    25    26    1
     2    26    22    1
     3    22    27    1
     4    27    28    1
     5    22    23   am
     6    23    24    2
     7    23    17    1
     8    17    18   ar
     9    18    19   ar
    10    19     1    1
    11     1     2    2
    12     2     3    1
    13     3     4    1
    14     4     5    1
    15     5     6    1
    16     6     7    1
    17     7     8    1
    18     3     9    1
    19     9    10    1
    20    10    11   ar
    21    11    12   ar
    22    12    13   ar
    23    13    14   ar
    24    14    15   ar
    25    19    20   ar
    26    20    21   ar
    27    21    17   ar
    28    15     1    1
    29     8     3    1
    30    15    10   ar
    31     6    16    1
@<TRIPOS>MOLECULE
*****
 28 31 0 0 0
SMALL
GASTEIGER

@<TRIPOS>ATOM
      1 C         141.9390  140.8727  166.3963 C.2     1  UNL1        0.0025
      2 C         142.3332  141.4871  167.7068 C.2     1  UNL1        0.0130
      3 C         141.4473  141.3273  168.9066 C.3     1  UNL1        0.1542
      4 C         142.7273  142.1015  169.0172 C.3     1  UNL1        0.0614
      5 C         143.1213  142.7159  170.3276 C.3     1  UNL1        0.0725
      6 N         142.2355  142.5561  171.5274 N.3     1  UNL1       -0.2972
      7 C         140.9555  141.7818  171.4169 C.3     1  UNL1        0.0725
      8 C         140.5614  141.1675  170.1065 C.3     1  UNL1        0.0614
      9 O         140.1673  140.5530  168.7961 O.3     1  UNL1       -0.4785
     10 C         139.7732  139.9387  167.4857 C.ar    1  UNL1        0.1386
     11 C         138.4932  139.1644  167.3751 C.ar    1  UNL1        0.0369
     12 C         138.0991  138.5500  166.0647 C.ar    1  UNL1        0.0031
     13 C         138.9850  138.7098  164.8648 C.ar    1  UNL1        0.0002
     14 C         140.2649  139.4841  164.9753 C.ar    1  UNL1        0.0030
     15 C         140.6591  140.0985  166.2858 C.ar    1  UNL1        0.0338
     16 H         141.9856  143.4955  171.8362 H       1  UNL1        0.1233
     17 C         143.7503  141.8341  163.1008 C.ar    1  UNL1        0.0830
     18 C         142.6372  142.0254  164.0879 C.ar    1  UNL1        0.0115
     19 C         142.8249  141.0325  165.1965 C.ar    1  UNL1        0.0070
     20 C         144.0540  140.2275  164.8944 C.ar    1  UNL1        0.0356
     21 S         144.6260  140.7229  163.5993 S.2     1  UNL1       -0.0819
     22 N         143.5103  142.0453  160.5225 N.am    1  UNL1       -0.2757
     23 C         143.9523  142.6166  161.8371 C.2     1  UNL1        0.2550
     24 O         144.5963  143.9704  161.8880 O.2     1  UNL1       -0.2694
     25 C         144.8876  142.5337  158.3743 C.3     1  UNL1        0.0233
     26 C         143.7122  142.8277  159.2588 C.3     1  UNL1        0.0938
     27 C         142.8663  140.6915  160.4716 C.3     1  UNL1        0.0938
     28 C         143.6817  139.4862  160.1078 C.3     1  UNL1        0.0233
@<TRIPOS>BOND
     1    25    26    1
     2    26    22    1
     3    22    27    1
     4    27    28    1
     5    22    23   am
     6    23    24    2
     7    23    17    1
     8    17    18   ar
     9    18    19   ar
    10    19     1    1
    11     1     2    2
    12     2     3    1
    13     3     4    1
    14     4     5    1
    15     5     6    1
    16     6     7    1
    17     7     8    1
    18     3     9    1
    19     9    10    1
    20    10    11   ar
    21    11    12   ar
    22    12    13   ar
    23    13    14   ar
    24    14    15   ar
    25    19    20   ar
    26    20    21   ar
    27    21    17   ar
    28    15     1    1
    29     8     3    1
    30    15    10   ar
    31     6    16    1
@<TRIPOS>MOLECULE
*****
 28 31 0 0 0
SMALL
GASTEIGER

@<TRIPOS>ATOM
      1 C         140.4537  141.9705  165.5062 C.2     1  UNL1        0.0025
      2 C         140.4772  142.2766  166.9745 C.2     1  UNL1        0.0130
      3 C         140.0336  141.2401  167.9639 C.3     1  UNL1        0.1542
      4 C         140.5007  142.5826  168.4427 C.3     1  UNL1        0.0614
      5 C         140.5242  142.8887  169.9110 C.3     1  UNL1        0.0725
      6 N         140.0806  141.8522  170.9003 N.3     1  UNL1       -0.2972
      7 C         139.6135  140.5096  170.4215 C.3     1  UNL1        0.0725
      8 C         139.5900  140.2036  168.9533 C.3     1  UNL1        0.0614
      9 O         139.5665  139.8975  167.4850 O.3     1  UNL1       -0.4785
     10 C         139.5430  139.5914  166.0167 C.ar    1  UNL1        0.1386
     11 C         139.0759  138.2488  165.5378 C.ar    1  UNL1        0.0369
     12 C         139.0524  137.9427  164.0696 C.ar    1  UNL1        0.0031
     13 C         139.4960  138.9793  163.0802 C.ar    1  UNL1        0.0002
     14 C         139.9631  140.3218  163.5591 C.ar    1  UNL1        0.0030
     15 C         139.9866  140.6279  165.0274 C.ar    1  UNL1        0.0338
     16 H         139.3099  142.2606  171.4291 H       1  UNL1        0.1233
     17 C         140.9155  144.5570  162.6493 C.ar    1  UNL1        0.0830
     18 C         140.0830  143.5434  163.3770 C.ar    1  UNL1        0.0115
     19 C         140.8973  143.0070  164.5168 C.ar    1  UNL1        0.0070
     20 C         142.2330  143.6891  164.4935 C.ar    1  UNL1        0.0356
     21 S         142.2443  144.6470  163.3393 S.2     1  UNL1       -0.0819
     22 N         140.7363  144.7944  160.0683 N.am    1  UNL1       -0.2757
     23 C         140.4933  145.3427  161.4432 C.2     1  UNL1        0.2550
     24 O         139.8282  146.6765  161.6121 O.2     1  UNL1       -0.2694
     25 C         141.3041  145.8739  157.7743 C.3     1  UNL1        0.0233
     26 C         140.3141  145.5801  158.8623 C.3     1  UNL1        0.0938
     27 C         141.4014  143.4606  159.8994 C.3     1  UNL1        0.0938
     28 C         140.5764  142.2080  159.8824 C.3     1  UNL1        0.0233
@<TRIPOS>BOND
     1    25    26    1
     2    26    22    1
     3    22    27    1
     4    27    28    1
     5    22    23   am
     6    23    24    2
     7    23    17    1
     8    17    18   ar
     9    18    19   ar
    10    19     1    1
    11     1     2    2
    12     2     3    1
    13     3     4    1
    14     4     5    1
    15     5     6    1
    16     6     7    1
    17     7     8    1
    18     3     9    1
    19     9    10    1
    20    10    11   ar
    21    11    12   ar
    22    12    13   ar
    23    13    14   ar
    24    14    15   ar
    25    19    20   ar
    26    20    21   ar
    27    21    17   ar
    28    15     1    1
    29     8     3    1
    30    15    10   ar
    31     6    16    1
@<TRIPOS>MOLECULE
*****
 28 31 0 0 0
SMALL
GASTEIGER

@<TRIPOS>ATOM
      1 C         142.3769  141.7371  165.2370 C.2     1  UNL1        0.0025
      2 C         142.5847  141.9554  166.7065 C.2     1  UNL1        0.0130
      3 C         142.5446  140.7906  167.6508 C.3     1  UNL1        0.1542
      4 C         142.7924  142.1737  168.1759 C.3     1  UNL1        0.0614
      5 C         143.0002  142.3919  169.6452 C.3     1  UNL1        0.0725
      6 N         142.9601  141.2272  170.5895 N.3     1  UNL1       -0.2972
      7 C         142.7123  139.8441  170.0645 C.3     1  UNL1        0.0725
      8 C         142.5046  139.6259  168.5951 C.3     1  UNL1        0.0614
      9 O         142.2968  139.4075  167.1256 O.3     1  UNL1       -0.4785
     10 C         142.0891  139.1893  165.6562 C.ar    1  UNL1        0.1386
     11 C         141.8412  137.8062  165.1311 C.ar    1  UNL1        0.0369
     12 C         141.6335  137.5879  163.6617 C.ar    1  UNL1        0.0031
     13 C         141.6735  138.7527  162.7174 C.ar    1  UNL1        0.0002
     14 C         141.9213  140.1357  163.2425 C.ar    1  UNL1        0.0030
     15 C         142.1291  140.3540  164.7119 C.ar    1  UNL1        0.0338
     16 H         142.2221  141.4219  171.2661 H       1  UNL1        0.1233
     17 C         141.7873  144.5258  162.6024 C.ar    1  UNL1        0.0830
     18 C         141.3220  143.3139  163.3540 C.ar    1  UNL1        0.0115
     19 C         142.4170  142.9018  164.2927 C.ar    1  UNL1        0.0070
     20 C         143.5590  143.8591  164.1213 C.ar    1  UNL1        0.0356
     21 S         143.1699  144.8627  163.0767 S.2     1  UNL1       -0.0819
     22 N         141.0851  144.8493  160.1221 N.am    1  UNL1       -0.2757
     23 C         141.0070  145.2700  161.5597 C.2     1  UNL1        0.2550
     24 O         140.1487  146.4351  161.9547 O.2     1  UNL1       -0.2694
     25 C         140.9091  145.8487  157.7303 C.3     1  UNL1        0.0233
     26 C         140.3048  145.5935  159.0794 C.3     1  UNL1        0.0938
     27 C         141.9434  143.6842  159.7272 C.3     1  UNL1        0.0938
     28 C         141.3468  142.3113  159.6321 C.3     1  UNL1        0.0233
@<TRIPOS>BOND
     1    25    26    1
     2    26    22    1
     3    22    27    1
     4    27    28    1
     5    22    23   am
     6    23    24    2
     7    23    17    1
     8    17    18   ar
     9    18    19   ar
    10    19     1    1
    11     1     2    2
    12     2     3    1
    13     3     4    1
    14     4     5    1
    15     5     6    1
    16     6     7    1
    17     7     8    1
    18     3     9    1
    19     9    10    1
    20    10    11   ar
    21    11    12   ar
    22    12    13   ar
    23    13    14   ar
    24    14    15   ar
    25    19    20   ar
    26    20    21   ar
    27    21    17   ar
    28    15     1    1
    29     8     3    1
    30    15    10   ar
    31     6    16    1
@<TRIPOS>MOLECULE
*****
 28 31 0 0 0
SMALL
GASTEIGER

@<TRIPOS>ATOM
      1 C         142.1815  141.6705  165.4473 C.2     1  UNL1        0.0025
      2 C         142.2821  140.8707  166.7124 C.2     1  UNL1        0.0130
      3 C         141.3393  141.1409  167.8474 C.3     1  UNL1        0.1542
      4 C         142.3826  140.0710  167.9774 C.3     1  UNL1        0.0614
      5 C         142.4831  139.2713  169.2424 C.3     1  UNL1        0.0725
      6 N         141.5403  139.5415  170.3774 N.3     1  UNL1       -0.2972
      7 C         140.4971  140.6113  170.2474 C.3     1  UNL1        0.0725
      8 C         140.3966  141.4110  168.9824 C.3     1  UNL1        0.0614
      9 O         140.2960  142.2108  167.7173 O.3     1  UNL1       -0.4785
     10 C         140.1955  143.0105  166.4522 C.ar    1  UNL1        0.1386
     11 C         139.1522  144.0804  166.3222 C.ar    1  UNL1        0.0369
     12 C         139.0517  144.8801  165.0571 C.ar    1  UNL1        0.0031
     13 C         139.9944  144.6099  163.9221 C.ar    1  UNL1        0.0002
     14 C         141.0377  143.5401  164.0522 C.ar    1  UNL1        0.0030
     15 C         141.1382  142.7403  165.3173 C.ar    1  UNL1        0.0338
     16 H         142.1138  139.7860  171.1847 H       1  UNL1        0.1233
     17 C         144.0063  140.7159  162.1572 C.ar    1  UNL1        0.0830
     18 C         142.7582  140.8068  162.9842 C.ar    1  UNL1        0.0115
     19 C         143.1243  141.4003  164.3123 C.ar    1  UNL1        0.0070
     20 C         144.5987  141.6763  164.3060 C.ar    1  UNL1        0.0356
     21 S         145.1438  141.2533  162.9741 S.2     1  UNL1       -0.0819
     22 N         143.9270  141.1051  159.5897 N.am    1  UNL1       -0.2757
     23 C         144.1004  140.1815  160.7588 C.2     1  UNL1        0.2550
     24 O         144.3679  138.7235  160.5295 O.2     1  UNL1       -0.2694
     25 C         145.0390  141.1296  157.2417 C.3     1  UNL1        0.0233
     26 C         144.0211  140.5707  158.1913 C.3     1  UNL1        0.0938
     27 C         143.6595  142.5632  159.8190 C.3     1  UNL1        0.0938
     28 C         142.2475  143.0636  159.8959 C.3     1  UNL1        0.0233
@<TRIPOS>BOND
     1    25    26    1
     2    26    22    1
     3    22    27    1
     4    27    28    1
     5    22    23   am
     6    23    24    2
     7    23    17    1
     8    17    18   ar
     9    18    19   ar
    10    19     1    1
    11     1     2    2
    12     2     3    1
    13     3     4    1
    14     4     5    1
    15     5     6    1
    16     6     7    1
    17     7     8    1
    18     3     9    1
    19     9    10    1
    20    10    11   ar
    21    11    12   ar
    22    12    13   ar
    23    13    14   ar
    24    14    15   ar
    25    19    20   ar
    26    20    21   ar
    27    21    17   ar
    28    15     1    1
    29     8     3    1
    30    15    10   ar
    31     6    16    1
@<TRIPOS>MOLECULE
*****
 28 31 0 0 0
SMALL
GASTEIGER

@<TRIPOS>ATOM
      1 C         140.3786  141.6653  165.9211 C.2     1  UNL1        0.0025
      2 C         140.0076  141.1537  167.2816 C.2     1  UNL1        0.0130
      3 C         140.9908  141.2446  168.4108 C.3     1  UNL1        0.1542
      4 C         139.6367  140.6421  168.6419 C.3     1  UNL1        0.0614
      5 C         139.2658  140.1305  170.0023 C.3     1  UNL1        0.0725
      6 N         140.2490  140.2214  171.1315 N.3     1  UNL1       -0.2972
      7 C         141.6031  140.8239  170.9004 C.3     1  UNL1        0.0725
      8 C         141.9740  141.3355  169.5400 C.3     1  UNL1        0.0614
      9 O         142.3449  141.8471  168.1796 O.3     1  UNL1       -0.4785
     10 C         142.7158  142.3587  166.8192 C.ar    1  UNL1        0.1386
     11 C         144.0699  142.9612  166.5880 C.ar    1  UNL1        0.0369
     12 C         144.4408  143.4728  165.2276 C.ar    1  UNL1        0.0031
     13 C         143.4577  143.3819  164.0984 C.ar    1  UNL1        0.0002
     14 C         142.1036  142.7794  164.3295 C.ar    1  UNL1        0.0030
     15 C         141.7326  142.2678  165.6900 C.ar    1  UNL1        0.0338
     16 H         140.4032  139.2698  171.4650 H       1  UNL1        0.1233
     17 C         138.3258  140.9383  162.7082 C.ar    1  UNL1        0.0830
     18 C         139.5348  140.7181  163.5683 C.ar    1  UNL1        0.0115
     19 C         139.3954  141.5744  164.7919 C.ar    1  UNL1        0.0070
     20 C         138.1003  142.3239  164.6880 C.ar    1  UNL1        0.0356
     21 S         137.4392  141.9308  163.4002 S.2     1  UNL1       -0.0819
     22 N         138.4323  140.9731  160.1126 N.am    1  UNL1       -0.2757
     23 C         138.0516  140.2814  161.3879 C.2     1  UNL1        0.2550
     24 O         137.3966  138.9327  161.3428 O.2     1  UNL1       -0.2694
     25 C         139.2444  139.5524  158.0945 C.3     1  UNL1        0.0233
     26 C         138.1581  140.3162  158.7922 C.3     1  UNL1        0.0938
     27 C         139.0873  142.3218  160.1576 C.3     1  UNL1        0.0938
     28 C         140.5810  142.4277  160.2449 C.3     1  UNL1        0.0233
@<TRIPOS>BOND
     1    25    26    1
     2    26    22    1
     3    22    27    1
     4    27    28    1
     5    22    23   am
     6    23    24    2
     7    23    17    1
     8    17    18   ar
     9    18    19   ar
    10    19     1    1
    11     1     2    2
    12     2     3    1
    13     3     4    1
    14     4     5    1
    15     5     6    1
    16     6     7    1
    17     7     8    1
    18     3     9    1
    19     9    10    1
    20    10    11   ar
    21    11    12   ar
    22    12    13   ar
    23    13    14   ar
    24    14    15   ar
    25    19    20   ar
    26    20    21   ar
    27    21    17   ar
    28    15     1    1
    29     8     3    1
    30    15    10   ar
    31     6    16    1
@<TRIPOS>MOLECULE
*****
 28 31 0 0 0
SMALL
GASTEIGER

@<TRIPOS>ATOM
      1 C         140.0439  140.6651  164.3632 C.2     1  UNL1        0.0025
      2 C         140.9414  140.1680  165.4576 C.2     1  UNL1        0.0130
      3 C         141.2091  141.0284  166.6568 C.3     1  UNL1        0.1542
      4 C         141.8388  139.6710  166.5519 C.3     1  UNL1        0.0614
      5 C         142.7362  139.1740  167.6463 C.3     1  UNL1        0.0725
      6 N         143.0039  140.0344  168.8455 N.3     1  UNL1       -0.2972
      7 C         142.3743  141.3917  168.9503 C.3     1  UNL1        0.0725
      8 C         141.4769  141.8887  167.8560 C.3     1  UNL1        0.0614
      9 O         140.5794  142.3858  166.7616 O.3     1  UNL1       -0.4785
     10 C         139.6820  142.8828  165.6673 C.ar    1  UNL1        0.1386
     11 C         139.0523  144.2402  165.7722 C.ar    1  UNL1        0.0369
     12 C         138.1549  144.7372  164.6778 C.ar    1  UNL1        0.0031
     13 C         137.8871  143.8769  163.4786 C.ar    1  UNL1        0.0002
     14 C         138.5168  142.5195  163.3737 C.ar    1  UNL1        0.0030
     15 C         139.4143  142.0225  164.4681 C.ar    1  UNL1        0.0338
     16 H         144.0134  140.1740  168.8882 H       1  UNL1        0.1233
     17 C         139.8372  138.8984  160.9133 C.ar    1  UNL1        0.0830
     18 C         140.3842  139.9748  161.8034 C.ar    1  UNL1        0.0115
     19 C         139.7762  139.8047  163.1640 C.ar    1  UNL1        0.0070
     20 C         138.8534  138.6232  163.1149 C.ar    1  UNL1        0.0356
     21 S         138.8911  138.0631  161.7239 S.2     1  UNL1       -0.0819
     22 N         141.5392  138.2002  159.0787 N.am    1  UNL1       -0.2757
     23 C         140.1768  138.6934  159.4667 C.2     1  UNL1        0.2550
     24 O         139.1539  138.9817  158.4081 O.2     1  UNL1       -0.2694
     25 C         142.7676  136.8578  157.2242 C.3     1  UNL1        0.0233
     26 C         141.8787  137.9952  157.6321 C.3     1  UNL1        0.0938
     27 C         142.5621  137.9120  160.1374 C.3     1  UNL1        0.0938
     28 C         143.6850  138.8770  160.3777 C.3     1  UNL1        0.0233
@<TRIPOS>BOND
     1    25    26    1
     2    26    22    1
     3    22    27    1
     4    27    28    1
     5    22    23   am
     6    23    24    2
     7    23    17    1
     8    17    18   ar
     9    18    19   ar
    10    19     1    1
    11     1     2    2
    12     2     3    1
    13     3     4    1
    14     4     5    1
    15     5     6    1
    16     6     7    1
    17     7     8    1
    18     3     9    1
    19     9    10    1
    20    10    11   ar
    21    11    12   ar
    22    12    13   ar
    23    13    14   ar
    24    14    15   ar
    25    19    20   ar
    26    20    21   ar
    27    21    17   ar
    28    15     1    1
    29     8     3    1
    30    15    10   ar
    31     6    16    1
