@<TRIPOS>MOLECULE
*****
 35 39 0 0 0
SMALL
GASTEIGER

@<TRIPOS>ATOM
      1 C         139.6550  139.3328  162.0401 C.ar    1  UNL1        0.0829
      2 C         140.9286  138.7642  161.4881 C.ar    1  UNL1        0.0193
      3 C         141.1564  138.7350  160.0059 C.ar    1  UNL1        0.0074
      4 C         140.1107  139.2745  159.0756 C.ar    1  UNL1        0.0676
      5 C         140.3385  139.2453  157.5932 C.ar    1  UNL1        0.1376
      6 N         139.2928  139.7848  156.6629 N.ar    1  UNL1       -0.1986
      7 C         138.0192  140.3534  157.2150 C.ar    1  UNL1        0.2228
      8 N         137.7914  140.3826  158.6972 N.ar    1  UNL1       -0.1944
      9 C         138.8371  139.8431  159.6275 C.ar    1  UNL1        0.1678
     10 N         138.6093  139.8723  161.1098 N.ar    1  UNL1       -0.2264
     11 N         136.9735  140.8929  156.2847 N.pl3   1  UNL1       -0.2732
     12 C         137.3715  141.7802  155.1425 C.3     1  UNL1        0.1231
     13 C         136.3258  142.3197  154.2122 C.3     1  UNL1        0.1350
     14 C         136.7237  143.2069  153.0702 C.3     1  UNL1        0.0339
     15 O         134.8821  141.9718  154.4241 O.3     1  UNL1       -0.3552
     16 C         134.4842  141.0846  155.5661 C.3     1  UNL1        0.1350
     17 C         133.0405  140.7368  155.7779 C.3     1  UNL1        0.0339
     18 C         135.5299  140.5451  156.4964 C.3     1  UNL1        0.1231
     19 C         138.9714  139.4204  166.4871 C.ar    1  UNL1        0.1370
     20 C         139.6515  140.5732  165.8100 C.ar    1  UNL1        0.0367
     21 C         139.8794  140.5440  164.3277 C.ar    1  UNL1        0.0046
     22 C         139.4271  139.3620  163.5225 C.ar    1  UNL1        0.0177
     23 C         138.7470  138.2092  164.1996 C.ar    1  UNL1        0.0027
     24 C         138.5191  138.2384  165.6818 C.ar    1  UNL1        0.0410
     25 C         137.8390  137.0855  166.3589 C.3     1  UNL1        0.1666
     26 O         136.8245  137.3397  167.4341 O.3     1  UNL1       -0.3771
     27 H         137.2601  137.7441  168.2006 H       1  UNL1        0.2109
     28 C         139.6552  140.2485  168.8527 C.3     1  UNL1        0.2525
     29 O         138.7435  139.4495  167.9694 O.3     1  UNL1       -0.4717
     30 N         141.6121  138.6767  157.0412 N.pl3   1  UNL1       -0.2879
     31 C         141.7702  137.1920  156.8975 C.3     1  UNL1        0.1242
     32 C         143.0438  136.6234  156.3455 C.3     1  UNL1        0.1636
     33 O         144.1592  137.5394  155.9372 O.3     1  UNL1       -0.3501
     34 C         144.0011  139.0241  156.0810 C.3     1  UNL1        0.1636
     35 C         142.7275  139.5928  156.6330 C.3     1  UNL1        0.1242
@<TRIPOS>BOND
     1    28    29    1
     2    29    19    1
     3    19    20   ar
     4    20    21   ar
     5    21    22   ar
     6    22     1    1
     7     1     2   ar
     8     2     3   ar
     9     3     4   ar
    10     4     5   ar
    11     5    30    1
    12    30    31    1
    13    31    32    1
    14    32    33    1
    15    33    34    1
    16    34    35    1
    17     5     6   ar
    18     6     7   ar
    19     7    11    1
    20    11    12    1
    21    12    13    1
    22    13    14    1
    23    13    15    1
    24    15    16    1
    25    16    17    1
    26    16    18    1
    27     7     8   ar
    28     8     9   ar
    29     9    10   ar
    30    22    23   ar
    31    23    24   ar
    32    24    25    1
    33    25    26    1
    34    24    19   ar
    35    10     1   ar
    36     9     4   ar
    37    35    30    1
    38    18    11    1
    39    26    27    1
@<TRIPOS>MOLECULE
*****
 35 39 0 0 0
SMALL
GASTEIGER

@<TRIPOS>ATOM
      1 C         143.5880  137.5315  156.0281 C.ar    1  UNL1        0.0829
      2 C         144.6172  138.0484  155.0671 C.ar    1  UNL1        0.0193
      3 C         145.1746  139.4306  155.2369 C.ar    1  UNL1        0.0074
      4 C         144.7026  140.2959  156.3676 C.ar    1  UNL1        0.0676
      5 C         145.2600  141.6782  156.5373 C.ar    1  UNL1        0.1376
      6 N         144.7881  142.5436  157.6680 N.ar    1  UNL1       -0.1986
      7 C         143.7588  142.0266  158.6290 C.ar    1  UNL1        0.2228
      8 N         143.2015  140.6444  158.4593 N.ar    1  UNL1       -0.1944
      9 C         143.6734  139.7791  157.3286 C.ar    1  UNL1        0.1678
     10 N         143.1161  138.3969  157.1588 N.ar    1  UNL1       -0.2264
     11 N         143.2868  142.8919  159.7597 N.pl3   1  UNL1       -0.2732
     12 C         142.0715  143.7542  159.5875 C.3     1  UNL1        0.1231
     13 C         141.5995  144.6195  160.7182 C.3     1  UNL1        0.1350
     14 C         140.3843  145.4817  160.5461 C.3     1  UNL1        0.0339
     15 O         142.3430  144.6226  162.0211 O.3     1  UNL1       -0.3552
     16 C         143.5583  143.7604  162.1932 C.3     1  UNL1        0.1350
     17 C         144.3016  143.7636  163.4960 C.3     1  UNL1        0.0339
     18 C         144.0302  142.8951  161.0625 C.3     1  UNL1        0.1231
     19 C         141.9160  133.3848  155.5190 C.ar    1  UNL1        0.1370
     20 C         141.2797  134.5425  154.8084 C.ar    1  UNL1        0.0367
     21 C         141.8370  135.9247  154.9782 C.ar    1  UNL1        0.0046
     22 C         143.0306  136.1493  155.8584 C.ar    1  UNL1        0.0177
     23 C         143.6670  134.9916  156.5689 C.ar    1  UNL1        0.0027
     24 C         143.1097  133.6093  156.3992 C.ar    1  UNL1        0.0410
     25 C         143.7460  132.4517  157.1097 C.3     1  UNL1        0.1666
     26 O         142.8879  131.3956  157.7409 O.3     1  UNL1       -0.3771
     27 H         142.3877  131.7825  158.4765 H       1  UNL1        0.2109
     28 C         141.7580  131.1731  154.1651 C.3     1  UNL1        0.2525
     29 O         141.3587  132.0025  155.3493 O.3     1  UNL1       -0.4717
     30 N         146.2892  142.1951  155.5764 N.pl3   1  UNL1       -0.2879
     31 C         147.7301  141.8130  155.7434 C.3     1  UNL1        0.1242
     32 C         148.7594  142.3299  154.7824 C.3     1  UNL1        0.1636
     33 O         148.3477  143.2289  153.6544 O.3     1  UNL1       -0.3501
     34 C         146.9069  143.6110  153.4874 C.3     1  UNL1        0.1636
     35 C         145.8776  143.0941  154.4483 C.3     1  UNL1        0.1242
@<TRIPOS>BOND
     1    28    29    1
     2    29    19    1
     3    19    20   ar
     4    20    21   ar
     5    21    22   ar
     6    22     1    1
     7     1     2   ar
     8     2     3   ar
     9     3     4   ar
    10     4     5   ar
    11     5    30    1
    12    30    31    1
    13    31    32    1
    14    32    33    1
    15    33    34    1
    16    34    35    1
    17     5     6   ar
    18     6     7   ar
    19     7    11    1
    20    11    12    1
    21    12    13    1
    22    13    14    1
    23    13    15    1
    24    15    16    1
    25    16    17    1
    26    16    18    1
    27     7     8   ar
    28     8     9   ar
    29     9    10   ar
    30    22    23   ar
    31    23    24   ar
    32    24    25    1
    33    25    26    1
    34    24    19   ar
    35    10     1   ar
    36     9     4   ar
    37    35    30    1
    38    18    11    1
    39    26    27    1
@<TRIPOS>MOLECULE
*****
 35 39 0 0 0
SMALL
GASTEIGER

@<TRIPOS>ATOM
      1 C         143.4594  137.4445  156.1522 C.ar    1  UNL1        0.0829
      2 C         144.1790  138.1542  155.0438 C.ar    1  UNL1        0.0193
      3 C         144.6774  139.5540  155.2487 C.ar    1  UNL1        0.0074
      4 C         144.4562  140.2442  156.5620 C.ar    1  UNL1        0.0676
      5 C         144.9546  141.6441  156.7669 C.ar    1  UNL1        0.1376
      6 N         144.7334  142.3343  158.0802 N.ar    1  UNL1       -0.1986
      7 C         144.0137  141.6246  159.1886 C.ar    1  UNL1        0.2228
      8 N         143.5154  140.2247  158.9837 N.ar    1  UNL1       -0.1944
      9 C         143.7366  139.5345  157.6704 C.ar    1  UNL1        0.1678
     10 N         143.2382  138.1347  157.4655 N.ar    1  UNL1       -0.2264
     11 N         143.7925  142.3147  160.5019 N.pl3   1  UNL1       -0.2732
     12 C         144.6639  141.9864  161.6778 C.3     1  UNL1        0.1231
     13 C         144.4427  142.6765  162.9911 C.3     1  UNL1        0.1350
     14 C         145.3140  142.3482  164.1671 C.3     1  UNL1        0.0339
     15 O         143.3501  143.6951  163.1284 O.3     1  UNL1       -0.3552
     16 C         142.4788  144.0235  161.9525 C.3     1  UNL1        0.1350
     17 C         141.3862  145.0420  162.0898 C.3     1  UNL1        0.0339
     18 C         142.7000  143.3333  160.6392 C.3     1  UNL1        0.1231
     19 C         141.9642  133.2448  155.5376 C.ar    1  UNL1        0.1370
     20 C         141.1492  134.4089  155.0574 C.ar    1  UNL1        0.0367
     21 C         141.6476  135.8088  155.2622 C.ar    1  UNL1        0.0046
     22 C         142.9610  136.0446  155.9473 C.ar    1  UNL1        0.0177
     23 C         143.7760  134.8805  156.4276 C.ar    1  UNL1        0.0027
     24 C         143.2777  133.4807  156.2227 C.ar    1  UNL1        0.0410
     25 C         144.0927  132.3166  156.7030 C.3     1  UNL1        0.1666
     26 O         145.5702  132.2790  156.4470 O.3     1  UNL1       -0.3771
     27 H         145.7313  132.2074  155.4931 H       1  UNL1        0.2109
     28 C         141.7776  131.1168  154.0590 C.3     1  UNL1        0.2525
     29 O         141.4659  131.8450  155.3328 O.3     1  UNL1       -0.4717
     30 N         145.6742  142.3538  155.6585 N.pl3   1  UNL1       -0.2879
     31 C         144.8993  143.1466  154.6480 C.3     1  UNL1        0.1242
     32 C         145.6190  143.8562  153.5396 C.3     1  UNL1        0.1636
     33 O         147.1134  143.7731  153.4417 O.3     1  UNL1       -0.3501
     34 C         147.8883  142.9803  154.4522 C.3     1  UNL1        0.1636
     35 C         147.1687  142.2706  155.5606 C.3     1  UNL1        0.1242
@<TRIPOS>BOND
     1    28    29    1
     2    29    19    1
     3    19    20   ar
     4    20    21   ar
     5    21    22   ar
     6    22     1    1
     7     1     2   ar
     8     2     3   ar
     9     3     4   ar
    10     4     5   ar
    11     5    30    1
    12    30    31    1
    13    31    32    1
    14    32    33    1
    15    33    34    1
    16    34    35    1
    17     5     6   ar
    18     6     7   ar
    19     7    11    1
    20    11    12    1
    21    12    13    1
    22    13    14    1
    23    13    15    1
    24    15    16    1
    25    16    17    1
    26    16    18    1
    27     7     8   ar
    28     8     9   ar
    29     9    10   ar
    30    22    23   ar
    31    23    24   ar
    32    24    25    1
    33    25    26    1
    34    24    19   ar
    35    10     1   ar
    36     9     4   ar
    37    35    30    1
    38    18    11    1
    39    26    27    1
@<TRIPOS>MOLECULE
*****
 35 39 0 0 0
SMALL
GASTEIGER

@<TRIPOS>ATOM
      1 C         140.9828  138.9395  159.1916 C.ar    1  UNL1        0.0829
      2 C         140.3471  140.2887  159.0329 C.ar    1  UNL1        0.0193
      3 C         140.2189  141.2013  160.2164 C.ar    1  UNL1        0.0074
      4 C         140.7265  140.7645  161.5587 C.ar    1  UNL1        0.0676
      5 C         140.5983  141.6771  162.7423 C.ar    1  UNL1        0.1376
      6 N         141.1059  141.2403  164.0845 N.ar    1  UNL1       -0.1986
      7 C         141.7417  139.8910  164.2431 C.ar    1  UNL1        0.2228
      8 N         141.8698  138.9784  163.0596 N.ar    1  UNL1       -0.1944
      9 C         141.3623  139.4152  161.7173 C.ar    1  UNL1        0.1678
     10 N         141.4904  138.5027  160.5338 N.ar    1  UNL1       -0.2264
     11 N         142.2493  139.4542  165.5854 N.pl3   1  UNL1       -0.2732
     12 C         143.3620  138.4524  165.6767 C.3     1  UNL1        0.1231
     13 C         143.8696  138.0156  167.0190 C.3     1  UNL1        0.1350
     14 C         144.9822  137.0138  167.1104 C.3     1  UNL1        0.0339
     15 O         143.2644  138.5807  168.2698 O.3     1  UNL1       -0.3552
     16 C         142.1518  139.5824  168.1784 C.3     1  UNL1        0.1350
     17 C         141.5467  140.1475  169.4293 C.3     1  UNL1        0.0339
     18 C         141.6442  140.0192  166.8362 C.3     1  UNL1        0.1231
     19 C         141.3675  136.2017  155.6409 C.ar    1  UNL1        0.1370
     20 C         140.0784  136.9261  155.8932 C.ar    1  UNL1        0.0367
     21 C         139.9502  137.8387  157.0768 C.ar    1  UNL1        0.0046
     22 C         141.1110  138.0269  158.0080 C.ar    1  UNL1        0.0177
     23 C         142.4001  137.3025  157.7556 C.ar    1  UNL1        0.0027
     24 C         142.5283  136.3900  156.5721 C.ar    1  UNL1        0.0410
     25 C         143.8173  135.6656  156.3197 C.3     1  UNL1        0.1666
     26 O         144.6262  135.9784  155.0959 O.3     1  UNL1       -0.3771
     27 H         144.1324  135.7112  154.3049 H       1  UNL1        0.2109
     28 C         141.7722  135.8588  153.0976 C.3     1  UNL1        0.2525
     29 O         141.4957  135.2892  154.4574 O.3     1  UNL1       -0.4717
     30 N         139.9626  143.0264  162.5836 N.pl3   1  UNL1       -0.2879
     31 C         140.7619  144.1726  162.0384 C.3     1  UNL1        0.1242
     32 C         140.1260  145.5220  161.8797 C.3     1  UNL1        0.1636
     33 O         138.6910  145.7250  162.2662 O.3     1  UNL1       -0.3501
     34 C         137.8917  144.5787  162.8114 C.3     1  UNL1        0.1636
     35 C         138.5275  143.2294  162.9701 C.3     1  UNL1        0.1242
@<TRIPOS>BOND
     1    28    29    1
     2    29    19    1
     3    19    20   ar
     4    20    21   ar
     5    21    22   ar
     6    22     1    1
     7     1     2   ar
     8     2     3   ar
     9     3     4   ar
    10     4     5   ar
    11     5    30    1
    12    30    31    1
    13    31    32    1
    14    32    33    1
    15    33    34    1
    16    34    35    1
    17     5     6   ar
    18     6     7   ar
    19     7    11    1
    20    11    12    1
    21    12    13    1
    22    13    14    1
    23    13    15    1
    24    15    16    1
    25    16    17    1
    26    16    18    1
    27     7     8   ar
    28     8     9   ar
    29     9    10   ar
    30    22    23   ar
    31    23    24   ar
    32    24    25    1
    33    25    26    1
    34    24    19   ar
    35    10     1   ar
    36     9     4   ar
    37    35    30    1
    38    18    11    1
    39    26    27    1
@<TRIPOS>MOLECULE
*****
 35 39 0 0 0
SMALL
GASTEIGER

@<TRIPOS>ATOM
      1 C         143.2385  137.6231  155.7220 C.ar    1  UNL1        0.0829
      2 C         143.2484  138.6743  154.6521 C.ar    1  UNL1        0.0193
      3 C         143.4359  140.1165  155.0194 C.ar    1  UNL1        0.0074
      4 C         143.6135  140.5074  156.4566 C.ar    1  UNL1        0.0676
      5 C         143.8009  141.9497  156.8239 C.ar    1  UNL1        0.1376
      6 N         143.9785  142.3407  158.2611 N.ar    1  UNL1       -0.1986
      7 C         143.9687  141.2893  159.3311 C.ar    1  UNL1        0.2228
      8 N         143.7812  139.8472  158.9638 N.ar    1  UNL1       -0.1944
      9 C         143.6036  139.4562  157.5266 C.ar    1  UNL1        0.1678
     10 N         143.4161  138.0141  157.1593 N.ar    1  UNL1       -0.2264
     11 N         144.1463  141.6803  160.7683 N.pl3   1  UNL1       -0.2732
     12 C         143.9439  143.1061  161.1882 C.3     1  UNL1        0.1231
     13 C         144.1215  143.4970  162.6255 C.3     1  UNL1        0.1350
     14 C         143.9192  144.9227  163.0454 C.3     1  UNL1        0.0339
     15 O         144.5014  142.4622  163.6428 O.3     1  UNL1       -0.3552
     16 C         144.7037  141.0365  163.2228 C.3     1  UNL1        0.1350
     17 C         145.0836  140.0017  164.2401 C.3     1  UNL1        0.0339
     18 C         144.5261  140.6455  161.7856 C.3     1  UNL1        0.1231
     19 C         142.6762  133.2964  154.6203 C.ar    1  UNL1        0.1370
     20 C         142.2044  134.3746  153.6902 C.ar    1  UNL1        0.0367
     21 C         142.3919  135.8168  154.0575 C.ar    1  UNL1        0.0046
     22 C         143.0511  136.1808  155.3548 C.ar    1  UNL1        0.0177
     23 C         143.5228  135.1027  156.2848 C.ar    1  UNL1        0.0027
     24 C         143.3354  133.6605  155.9176 C.ar    1  UNL1        0.0410
     25 C         143.8071  132.5823  156.8477 C.3     1  UNL1        0.1666
     26 O         142.8244  131.6074  157.4256 O.3     1  UNL1       -0.3771
     27 H         142.2138  132.0756  158.0162 H       1  UNL1        0.2109
     28 C         141.1166  131.2485  154.2689 C.3     1  UNL1        0.2525
     29 O         142.4887  131.8542  154.2531 O.3     1  UNL1       -0.4717
     30 N         143.8108  143.0009  155.7540 N.pl3   1  UNL1       -0.2879
     31 C         142.6656  143.9626  155.6368 C.3     1  UNL1        0.1242
     32 C         142.6755  145.0139  154.5668 C.3     1  UNL1        0.1636
     33 O         143.8306  145.1034  153.6141 O.3     1  UNL1       -0.3501
     34 C         144.9758  144.1417  153.7312 C.3     1  UNL1        0.1636
     35 C         144.9659  143.0905  154.8012 C.3     1  UNL1        0.1242
@<TRIPOS>BOND
     1    28    29    1
     2    29    19    1
     3    19    20   ar
     4    20    21   ar
     5    21    22   ar
     6    22     1    1
     7     1     2   ar
     8     2     3   ar
     9     3     4   ar
    10     4     5   ar
    11     5    30    1
    12    30    31    1
    13    31    32    1
    14    32    33    1
    15    33    34    1
    16    34    35    1
    17     5     6   ar
    18     6     7   ar
    19     7    11    1
    20    11    12    1
    21    12    13    1
    22    13    14    1
    23    13    15    1
    24    15    16    1
    25    16    17    1
    26    16    18    1
    27     7     8   ar
    28     8     9   ar
    29     9    10   ar
    30    22    23   ar
    31    23    24   ar
    32    24    25    1
    33    25    26    1
    34    24    19   ar
    35    10     1   ar
    36     9     4   ar
    37    35    30    1
    38    18    11    1
    39    26    27    1
@<TRIPOS>MOLECULE
*****
 35 39 0 0 0
SMALL
GASTEIGER

@<TRIPOS>ATOM
      1 C         140.0948  140.7650  162.7737 C.ar    1  UNL1        0.0829
      2 C         140.0208  142.1836  162.2920 C.ar    1  UNL1        0.0193
      3 C         140.3621  142.5110  160.8685 C.ar    1  UNL1        0.0074
      4 C         140.7774  141.4199  159.9268 C.ar    1  UNL1        0.0676
      5 C         141.1186  141.7474  158.5032 C.ar    1  UNL1        0.1376
      6 N         141.5339  140.6562  157.5615 N.ar    1  UNL1       -0.1986
      7 C         141.6079  139.2376  158.0432 C.ar    1  UNL1        0.2228
      8 N         141.2667  138.9101  159.4667 N.ar    1  UNL1       -0.1944
      9 C         140.8514  140.0013  160.4085 C.ar    1  UNL1        0.1678
     10 N         140.5101  139.6738  161.8319 N.ar    1  UNL1       -0.2264
     11 N         142.0232  138.1464  157.1015 N.pl3   1  UNL1       -0.2732
     12 C         141.8876  138.3421  155.6204 C.3     1  UNL1        0.1231
     13 C         142.3029  137.2509  154.6787 C.3     1  UNL1        0.1350
     14 C         142.1673  137.4465  153.1977 C.3     1  UNL1        0.0339
     15 O         142.8538  135.9641  155.2179 O.3     1  UNL1       -0.3552
     16 C         142.9894  135.7685  156.6989 C.3     1  UNL1        0.1350
     17 C         143.5402  134.4818  157.2381 C.3     1  UNL1        0.0339
     18 C         142.5741  136.8597  157.6407 C.3     1  UNL1        0.1231
     19 C         139.0710  139.7824  167.0442 C.ar    1  UNL1        0.1370
     20 C         139.7668  141.0704  166.7170 C.ar    1  UNL1        0.0367
     21 C         140.1081  141.3979  165.2935 C.ar    1  UNL1        0.0046
     22 C         139.7536  140.4375  164.1972 C.ar    1  UNL1        0.0177
     23 C         139.0577  139.1495  164.5244 C.ar    1  UNL1        0.0027
     24 C         138.7165  138.8220  165.9478 C.ar    1  UNL1        0.0410
     25 C         138.0206  137.5341  166.2750 C.3     1  UNL1        0.1666
     26 O         136.9381  137.5091  167.3129 O.3     1  UNL1       -0.3771
     27 H         137.3183  137.7134  168.1816 H       1  UNL1        0.2109
     28 C         139.3459  140.2412  169.5865 C.3     1  UNL1        0.2525
     29 O         138.7297  139.4549  168.4676 O.3     1  UNL1       -0.4717
     30 N         141.0446  143.1660  158.0216 N.pl3   1  UNL1       -0.2879
     31 C         142.2212  144.0798  158.1964 C.3     1  UNL1        0.1242
     32 C         142.1472  145.4984  157.7147 C.3     1  UNL1        0.1636
     33 O         140.8965  146.0032  157.0581 O.3     1  UNL1       -0.3501
     34 C         139.7199  145.0894  156.8833 C.3     1  UNL1        0.1636
     35 C         139.7940  143.6708  157.3650 C.3     1  UNL1        0.1242
@<TRIPOS>BOND
     1    28    29    1
     2    29    19    1
     3    19    20   ar
     4    20    21   ar
     5    21    22   ar
     6    22     1    1
     7     1     2   ar
     8     2     3   ar
     9     3     4   ar
    10     4     5   ar
    11     5    30    1
    12    30    31    1
    13    31    32    1
    14    32    33    1
    15    33    34    1
    16    34    35    1
    17     5     6   ar
    18     6     7   ar
    19     7    11    1
    20    11    12    1
    21    12    13    1
    22    13    14    1
    23    13    15    1
    24    15    16    1
    25    16    17    1
    26    16    18    1
    27     7     8   ar
    28     8     9   ar
    29     9    10   ar
    30    22    23   ar
    31    23    24   ar
    32    24    25    1
    33    25    26    1
    34    24    19   ar
    35    10     1   ar
    36     9     4   ar
    37    35    30    1
    38    18    11    1
    39    26    27    1
@<TRIPOS>MOLECULE
*****
 35 39 0 0 0
SMALL
GASTEIGER

@<TRIPOS>ATOM
      1 C         141.0660  138.9173  158.9569 C.ar    1  UNL1        0.0829
      2 C         140.5083  140.2937  158.7464 C.ar    1  UNL1        0.0193
      3 C         140.4140  141.2491  159.8989 C.ar    1  UNL1        0.0074
      4 C         140.8774  140.8280  161.2620 C.ar    1  UNL1        0.0676
      5 C         140.7831  141.7834  162.4145 C.ar    1  UNL1        0.1376
      6 N         141.2465  141.3624  163.7776 N.ar    1  UNL1       -0.1986
      7 C         141.8042  139.9858  163.9881 C.ar    1  UNL1        0.2228
      8 N         141.8985  139.0305  162.8356 N.ar    1  UNL1       -0.1944
      9 C         141.4351  139.4516  161.4725 C.ar    1  UNL1        0.1678
     10 N         141.5294  138.4962  160.3200 N.ar    1  UNL1       -0.2264
     11 N         142.2676  139.5648  165.3512 N.pl3   1  UNL1       -0.2732
     12 C         141.6464  140.1705  166.5749 C.3     1  UNL1        0.1231
     13 C         142.1098  139.7495  167.9379 C.3     1  UNL1        0.1350
     14 C         141.4887  140.3552  169.1615 C.3     1  UNL1        0.0339
     15 O         143.1944  138.7226  168.0773 O.3     1  UNL1       -0.3552
     16 C         143.8155  138.1169  166.8537 C.3     1  UNL1        0.1350
     17 C         144.9000  137.0901  166.9932 C.3     1  UNL1        0.0339
     18 C         143.3521  138.5380  165.4907 C.3     1  UNL1        0.1231
     19 C         141.3489  136.0510  155.4993 C.ar    1  UNL1        0.1370
     20 C         140.0431  136.7177  155.8159 C.ar    1  UNL1        0.0367
     21 C         139.9488  137.6732  156.9684 C.ar    1  UNL1        0.0046
     22 C         141.1603  137.9618  157.8044 C.ar    1  UNL1        0.0177
     23 C         142.4662  137.2951  157.4878 C.ar    1  UNL1        0.0027
     24 C         142.5605  136.3397  156.3354 C.ar    1  UNL1        0.0410
     25 C         143.8664  135.6730  156.0188 C.3     1  UNL1        0.1666
     26 O         144.9027  136.3981  155.2125 O.3     1  UNL1       -0.3771
     27 H         144.5707  136.5404  154.3123 H       1  UNL1        0.2109
     28 C         141.7755  135.6050  152.9757 C.3     1  UNL1        0.2525
     29 O         141.4433  135.0956  154.3469 O.3     1  UNL1       -0.4717
     30 N         140.2255  143.1599  162.2040 N.pl3   1  UNL1       -0.2879
     31 C         138.9017  143.5325  162.8031 C.3     1  UNL1        0.1242
     32 C         138.3441  144.9090  162.5925 C.3     1  UNL1        0.1636
     33 O         139.1101  145.9128  161.7829 O.3     1  UNL1       -0.3501
     34 C         140.4339  145.5402  161.1838 C.3     1  UNL1        0.1636
     35 C         140.9915  144.1638  161.3944 C.3     1  UNL1        0.1242
@<TRIPOS>BOND
     1    28    29    1
     2    29    19    1
     3    19    20   ar
     4    20    21   ar
     5    21    22   ar
     6    22     1    1
     7     1     2   ar
     8     2     3   ar
     9     3     4   ar
    10     4     5   ar
    11     5    30    1
    12    30    31    1
    13    31    32    1
    14    32    33    1
    15    33    34    1
    16    34    35    1
    17     5     6   ar
    18     6     7   ar
    19     7    11    1
    20    11    12    1
    21    12    13    1
    22    13    14    1
    23    13    15    1
    24    15    16    1
    25    16    17    1
    26    16    18    1
    27     7     8   ar
    28     8     9   ar
    29     9    10   ar
    30    22    23   ar
    31    23    24   ar
    32    24    25    1
    33    25    26    1
    34    24    19   ar
    35    10     1   ar
    36     9     4   ar
    37    35    30    1
    38    18    11    1
    39    26    27    1
@<TRIPOS>MOLECULE
*****
 35 39 0 0 0
SMALL
GASTEIGER

@<TRIPOS>ATOM
      1 C         142.7513  136.5289  156.5402 C.ar    1  UNL1        0.0829
      2 C         141.6141  137.2568  157.1937 C.ar    1  UNL1        0.0193
      3 C         141.6475  138.7520  157.3077 C.ar    1  UNL1        0.0074
      4 C         142.8181  139.5194  156.7684 C.ar    1  UNL1        0.0676
      5 C         142.8514  141.0147  156.8825 C.ar    1  UNL1        0.1376
      6 N         144.0220  141.7821  156.3431 N.ar    1  UNL1       -0.1986
      7 C         145.1592  141.0542  155.6897 C.ar    1  UNL1        0.2228
      8 N         145.1258  139.5589  155.5756 N.ar    1  UNL1       -0.1944
      9 C         143.9552  138.7915  156.1150 C.ar    1  UNL1        0.1678
     10 N         143.9219  137.2963  156.0009 N.ar    1  UNL1       -0.2264
     11 N         146.3298  141.8216  155.1503 N.pl3   1  UNL1       -0.2732
     12 C         146.1102  143.1283  154.4471 C.3     1  UNL1        0.1231
     13 C         147.2807  143.8957  153.9078 C.3     1  UNL1        0.1350
     14 C         147.0612  145.2023  153.2046 C.3     1  UNL1        0.0339
     15 O         148.6709  143.3564  154.0716 O.3     1  UNL1       -0.3552
     16 C         148.8904  142.0497  154.7748 C.3     1  UNL1        0.1350
     17 C         150.2805  141.5105  154.9386 C.3     1  UNL1        0.0339
     18 C         147.7198  141.2824  155.3142 C.3     1  UNL1        0.1231
     19 C         142.6513  132.0430  156.1980 C.ar    1  UNL1        0.1370
     20 C         141.6270  132.8728  155.4822 C.ar    1  UNL1        0.0367
     21 C         141.6604  134.3681  155.5963 C.ar    1  UNL1        0.0046
     22 C         142.7180  135.0336  156.4261 C.ar    1  UNL1        0.0177
     23 C         143.7422  134.2038  157.1419 C.ar    1  UNL1        0.0027
     24 C         143.7089  132.7085  157.0278 C.ar    1  UNL1        0.0410
     25 C         144.7332  131.8787  157.7436 C.3     1  UNL1        0.1666
     26 O         144.3366  130.5762  158.3728 O.3     1  UNL1       -0.3771
     27 H         143.7233  130.7444  159.1053 H       1  UNL1        0.2109
     28 C         143.2050  129.8743  154.8790 C.3     1  UNL1        0.2525
     29 O         142.6180  130.5477  156.0839 O.3     1  UNL1       -0.4717
     30 N         141.7143  141.7426  157.5359 N.pl3   1  UNL1       -0.2879
     31 C         140.5573  142.2219  156.7103 C.3     1  UNL1        0.1242
     32 C         139.4201  142.9498  157.3638 C.3     1  UNL1        0.1636
     33 O         139.4399  143.1984  158.8429 O.3     1  UNL1       -0.3501
     34 C         140.5968  142.7191  159.6685 C.3     1  UNL1        0.1636
     35 C         141.7340  141.9912  159.0151 C.3     1  UNL1        0.1242
@<TRIPOS>BOND
     1    28    29    1
     2    29    19    1
     3    19    20   ar
     4    20    21   ar
     5    21    22   ar
     6    22     1    1
     7     1     2   ar
     8     2     3   ar
     9     3     4   ar
    10     4     5   ar
    11     5    30    1
    12    30    31    1
    13    31    32    1
    14    32    33    1
    15    33    34    1
    16    34    35    1
    17     5     6   ar
    18     6     7   ar
    19     7    11    1
    20    11    12    1
    21    12    13    1
    22    13    14    1
    23    13    15    1
    24    15    16    1
    25    16    17    1
    26    16    18    1
    27     7     8   ar
    28     8     9   ar
    29     9    10   ar
    30    22    23   ar
    31    23    24   ar
    32    24    25    1
    33    25    26    1
    34    24    19   ar
    35    10     1   ar
    36     9     4   ar
    37    35    30    1
    38    18    11    1
    39    26    27    1
@<TRIPOS>MOLECULE
*****
 35 39 0 0 0
SMALL
GASTEIGER

@<TRIPOS>ATOM
      1 C         142.5532  136.5439  156.5375 C.ar    1  UNL1        0.0829
      2 C         142.1864  137.4677  155.4141 C.ar    1  UNL1        0.0193
      3 C         142.2284  138.9528  155.6204 C.ar    1  UNL1        0.0074
      4 C         142.6372  139.5141  156.9500 C.ar    1  UNL1        0.0676
      5 C         142.6792  140.9993  157.1562 C.ar    1  UNL1        0.1376
      6 N         143.0880  141.5606  158.4858 N.ar    1  UNL1       -0.1986
      7 C         143.4548  140.6367  159.6092 C.ar    1  UNL1        0.2228
      8 N         143.4128  139.1516  159.4029 N.ar    1  UNL1       -0.1944
      9 C         143.0040  138.5903  158.0733 C.ar    1  UNL1        0.1678
     10 N         142.9620  137.1052  157.8671 N.ar    1  UNL1       -0.2264
     11 N         143.8636  141.1980  160.9387 N.pl3   1  UNL1       -0.2732
     12 C         143.7446  142.6704  161.1999 C.3     1  UNL1        0.1231
     13 C         144.1534  143.2317  162.5295 C.3     1  UNL1        0.1350
     14 C         144.0345  144.7039  162.7906 C.3     1  UNL1        0.0339
     15 O         144.6812  142.3206  163.5979 O.3     1  UNL1       -0.3552
     16 C         144.8001  140.8484  163.3368 C.3     1  UNL1        0.1350
     17 C         145.3278  139.9374  164.4052 C.3     1  UNL1        0.0339
     18 C         144.3913  140.2871  162.0072 C.3     1  UNL1        0.1231
     19 C         142.4273  132.0883  155.9189 C.ar    1  UNL1        0.1370
     20 C         141.4435  132.9719  155.2108 C.ar    1  UNL1        0.0367
     21 C         141.4855  134.4571  155.4170 C.ar    1  UNL1        0.0046
     22 C         142.5112  135.0586  156.3312 C.ar    1  UNL1        0.0177
     23 C         143.4950  134.1750  157.0393 C.ar    1  UNL1        0.0027
     24 C         143.4531  132.6899  156.8332 C.ar    1  UNL1        0.0410
     25 C         144.4369  131.8063  157.5413 C.3     1  UNL1        0.1666
     26 O         143.9688  130.5483  158.2107 O.3     1  UNL1       -0.3771
     27 H         143.3889  130.7745  158.9547 H       1  UNL1        0.2109
     28 C         143.1261  129.9842  154.5646 C.3     1  UNL1        0.2525
     29 O         142.3854  130.6031  155.7127 O.3     1  UNL1       -0.4717
     30 N         142.3124  141.9231  156.0328 N.pl3   1  UNL1       -0.2879
     31 C         143.3674  142.4005  155.0794 C.3     1  UNL1        0.1242
     32 C         143.0006  143.3244  153.9560 C.3     1  UNL1        0.1636
     33 O         141.5787  143.7708  153.7861 O.3     1  UNL1       -0.3501
     34 C         140.5237  143.2935  154.7395 C.3     1  UNL1        0.1636
     35 C         140.8905  142.3697  155.8628 C.3     1  UNL1        0.1242
@<TRIPOS>BOND
     1    28    29    1
     2    29    19    1
     3    19    20   ar
     4    20    21   ar
     5    21    22   ar
     6    22     1    1
     7     1     2   ar
     8     2     3   ar
     9     3     4   ar
    10     4     5   ar
    11     5    30    1
    12    30    31    1
    13    31    32    1
    14    32    33    1
    15    33    34    1
    16    34    35    1
    17     5     6   ar
    18     6     7   ar
    19     7    11    1
    20    11    12    1
    21    12    13    1
    22    13    14    1
    23    13    15    1
    24    15    16    1
    25    16    17    1
    26    16    18    1
    27     7     8   ar
    28     8     9   ar
    29     9    10   ar
    30    22    23   ar
    31    23    24   ar
    32    24    25    1
    33    25    26    1
    34    24    19   ar
    35    10     1   ar
    36     9     4   ar
    37    35    30    1
    38    18    11    1
    39    26    27    1
