@<TRIPOS>MOLECULE
*****
 36 39 0 0 0
SMALL
GASTEIGER

@<TRIPOS>ATOM
      1 C         139.8171  139.1475  164.5409 C.ar    1  UNL1        0.0291
      2 C         140.2801  140.2325  165.4673 C.ar    1  UNL1        0.0050
      3 C         139.7423  140.3048  166.8657 C.ar    1  UNL1        0.0311
      4 C         140.2052  141.3899  167.7922 C.ar    1  UNL1        0.0522
      5 C         139.6674  141.4622  169.1906 C.ar    1  UNL1        0.0853
      6 C         138.6667  140.4494  169.6625 C.ar    1  UNL1        0.1045
      7 N         138.2037  139.3643  168.7361 N.ar    1  UNL1       -0.2435
      8 C         138.7415  139.2920  167.3377 C.ar    1  UNL1        0.0847
      9 C         138.2786  138.2069  166.4113 C.ar    1  UNL1        0.0488
     10 C         138.8164  138.1347  165.0129 C.ar    1  UNL1        0.1416
     11 F         138.3534  137.0496  164.0864 F       1  UNL1       -0.2041
     12 C         141.4305  138.9305  160.3456 C.ar    1  UNL1        0.0888
     13 C         142.0521  138.1037  161.4319 C.ar    1  UNL1        0.0173
     14 C         141.5143  138.1760  162.8303 C.ar    1  UNL1        0.0029
     15 C         140.3549  139.0751  163.1425 C.ar    1  UNL1        0.0213
     16 C         139.7333  139.9019  162.0562 C.ar    1  UNL1        0.0986
     17 N         140.2710  139.8297  160.6578 N.ar    1  UNL1       -0.2457
     18 C         141.9682  138.8582  158.9472 C.3     1  UNL1        0.1876
     19 C         143.9655  140.3394  158.1943 C.3     1  UNL1        0.1747
     20 O         143.4376  139.0292  158.6990 O.3     1  UNL1       -0.3447
     21 C         140.1304  142.5473  170.1171 C.2     1  UNL1        0.2455
     22 N         140.5550  142.2090  171.5154 N.am    1  UNL1       -0.3252
     23 O         140.1687  143.9706  169.6452 O.2     1  UNL1       -0.2703
     24 H         140.5298  141.2748  171.8250 H       1  UNL1        0.1453
     25 H         140.8588  142.9211  172.1235 H       1  UNL1        0.1453
     26 N         141.2060  142.4027  167.3202 N.pl3   1  UNL1       -0.3292
     27 H         140.9000  143.2674  166.9626 H       1  UNL1        0.1471
     28 C         142.6729  142.0979  167.3931 C.3     1  UNL1        0.1114
     29 C         143.4188  142.3039  168.6781 C.3     1  UNL1        0.0278
     30 C         143.3939  141.5872  166.1810 C.ar    1  UNL1        0.0938
     31 N         144.0022  142.4277  165.0976 N.ar    1  UNL1       -0.1723
     32 N         144.6175  141.5062  164.0864 N.ar    1  UNL1       -0.2480
     33 C         145.3348  141.9217  162.8363 C.3     1  UNL1        0.1537
     34 C         144.3895  140.0963  164.5448 C.ar    1  UNL1        0.0921
     35 C         143.6333  140.1463  165.8393 C.ar    1  UNL1        0.0137
     36 C         143.1936  138.9632  166.6499 C.3     1  UNL1        0.0340
@<TRIPOS>BOND
     1    19    20    1
     2    20    18    1
     3    18    12    1
     4    12    13   ar
     5    13    14   ar
     6    14    15   ar
     7    15     1    1
     8     1     2   ar
     9     2     3   ar
    10     3     4   ar
    11     4    26    1
    12    26    28    1
    13    28    29    1
    14    28    30    1
    15    30    31   ar
    16    31    32   ar
    17    32    33    1
    18    32    34   ar
    19    34    35   ar
    20    35    36    1
    21     4     5   ar
    22     5    21    1
    23    21    22   am
    24    21    23    2
    25     5     6   ar
    26     6     7   ar
    27     7     8   ar
    28     8     9   ar
    29     9    10   ar
    30    10    11    1
    31    15    16   ar
    32    16    17   ar
    33    17    12   ar
    34    10     1   ar
    35     8     3   ar
    36    35    30   ar
    37    26    27    1
    38    22    24    1
    39    22    25    1
@<TRIPOS>MOLECULE
*****
 36 39 0 0 0
SMALL
GASTEIGER

@<TRIPOS>ATOM
      1 C         140.4624  140.4808  165.3230 C.ar    1  UNL1        0.0291
      2 C         140.7887  141.8285  164.7510 C.ar    1  UNL1        0.0050
      3 C         140.1522  142.2725  163.4674 C.ar    1  UNL1        0.0311
      4 C         140.4786  143.6202  162.8953 C.ar    1  UNL1        0.0522
      5 C         139.8420  144.0643  161.6117 C.ar    1  UNL1        0.0853
      6 C         138.8791  143.1607  160.9002 C.ar    1  UNL1        0.1045
      7 N         138.5527  141.8130  161.4722 N.ar    1  UNL1       -0.2435
      8 C         139.1893  141.3689  162.7559 C.ar    1  UNL1        0.0847
      9 C         138.8629  140.0212  163.3279 C.ar    1  UNL1        0.0488
     10 C         139.4995  139.5772  164.6115 C.ar    1  UNL1        0.1416
     11 F         139.1731  138.2295  165.1836 F       1  UNL1       -0.2041
     12 C         142.3721  139.1485  169.1738 C.ar    1  UNL1        0.0888
     13 C         141.0146  139.7865  169.1913 C.ar    1  UNL1        0.0173
     14 C         140.3781  140.2306  167.9076 C.ar    1  UNL1        0.0029
     15 C         141.0989  140.0367  166.6066 C.ar    1  UNL1        0.0213
     16 C         142.4564  139.3987  166.5891 C.ar    1  UNL1        0.0986
     17 N         143.0930  138.9546  167.8727 N.ar    1  UNL1       -0.2457
     18 C         143.0086  138.7044  170.4573 C.3     1  UNL1        0.1876
     19 C         144.6544  136.8406  171.2111 C.3     1  UNL1        0.1747
     20 O         143.3132  137.2527  170.6804 O.3     1  UNL1       -0.3447
     21 C         140.1684  145.4120  161.0396 C.2     1  UNL1        0.2455
     22 N         141.4106  145.5979  160.2197 N.am    1  UNL1       -0.3252
     23 O         139.2525  146.5738  161.2875 O.2     1  UNL1       -0.2703
     24 H         142.0117  144.8354  160.0570 H       1  UNL1        0.1453
     25 H         141.6248  146.4824  159.8442 H       1  UNL1        0.1453
     26 N         141.4415  144.5238  163.6068 N.pl3   1  UNL1       -0.3292
     27 H         141.1038  145.2466  164.1837 H       1  UNL1        0.1471
     28 C         142.9190  144.3262  163.4394 C.3     1  UNL1        0.1114
     29 C         143.8794  145.0638  164.3245 C.3     1  UNL1        0.0278
     30 C         143.4360  143.3909  162.3868 C.ar    1  UNL1        0.0938
     31 N         143.4483  143.6470  160.9088 N.ar    1  UNL1       -0.1723
     32 N         144.0514  142.4496  160.2360 N.ar    1  UNL1       -0.2480
     33 C         144.2578  142.2784  158.7602 C.3     1  UNL1        0.1537
     34 C         144.4119  141.4536  161.2981 C.ar    1  UNL1        0.0921
     35 C         144.0315  142.0354  162.6274 C.ar    1  UNL1        0.0137
     36 C         144.2146  141.3771  163.9627 C.3     1  UNL1        0.0340
@<TRIPOS>BOND
     1    19    20    1
     2    20    18    1
     3    18    12    1
     4    12    13   ar
     5    13    14   ar
     6    14    15   ar
     7    15     1    1
     8     1     2   ar
     9     2     3   ar
    10     3     4   ar
    11     4    26    1
    12    26    28    1
    13    28    29    1
    14    28    30    1
    15    30    31   ar
    16    31    32   ar
    17    32    33    1
    18    32    34   ar
    19    34    35   ar
    20    35    36    1
    21     4     5   ar
    22     5    21    1
    23    21    22   am
    24    21    23    2
    25     5     6   ar
    26     6     7   ar
    27     7     8   ar
    28     8     9   ar
    29     9    10   ar
    30    10    11    1
    31    15    16   ar
    32    16    17   ar
    33    17    12   ar
    34    10     1   ar
    35     8     3   ar
    36    35    30   ar
    37    26    27    1
    38    22    24    1
    39    22    25    1
@<TRIPOS>MOLECULE
*****
 36 39 0 0 0
SMALL
GASTEIGER

@<TRIPOS>ATOM
      1 C         140.2824  139.0309  164.8200 C.ar    1  UNL1        0.0291
      2 C         141.0534  139.5074  166.0152 C.ar    1  UNL1        0.0050
      3 C         140.3617  139.6755  167.3355 C.ar    1  UNL1        0.0311
      4 C         141.1326  140.1521  168.5308 C.ar    1  UNL1        0.0522
      5 C         140.4410  140.3202  169.8511 C.ar    1  UNL1        0.0853
      6 C         138.9784  140.0117  169.9763 C.ar    1  UNL1        0.1045
      7 N         138.2075  139.5352  168.7811 N.ar    1  UNL1       -0.2435
      8 C         138.8991  139.3671  167.4607 C.ar    1  UNL1        0.0847
      9 C         138.1282  138.8905  166.2655 C.ar    1  UNL1        0.0488
     10 C         138.8198  138.7224  164.9452 C.ar    1  UNL1        0.1416
     11 F         138.0489  138.2458  163.7499 F       1  UNL1       -0.2041
     12 C         142.3573  138.5265  160.8588 C.ar    1  UNL1        0.0888
     13 C         142.1784  139.8966  161.4427 C.ar    1  UNL1        0.0173
     14 C         141.4867  140.0647  162.7631 C.ar    1  UNL1        0.0029
     15 C         140.9741  138.8628  163.4996 C.ar    1  UNL1        0.0213
     16 C         141.1530  137.4927  162.9158 C.ar    1  UNL1        0.0986
     17 N         141.8446  137.3245  161.5954 N.ar    1  UNL1       -0.2457
     18 C         143.0489  138.3583  159.5385 C.3     1  UNL1        0.1876
     19 C         140.7848  138.4302  158.2662 C.3     1  UNL1        0.1747
     20 O         142.2812  138.5344  158.2620 O.3     1  UNL1       -0.3447
     21 C         141.2119  140.7968  171.0464 C.2     1  UNL1        0.2455
     22 N         142.4880  140.1123  171.4375 N.am    1  UNL1       -0.3252
     23 O         140.7068  141.9579  171.8505 O.2     1  UNL1       -0.2703
     24 H         142.8196  139.3502  170.9097 H       1  UNL1        0.1453
     25 H         142.9940  140.4251  172.2219 H       1  UNL1        0.1453
     26 N         142.5952  140.4606  168.4056 N.pl3   1  UNL1       -0.3292
     27 H         143.2617  139.7485  168.5394 H       1  UNL1        0.1471
     28 C         143.0423  141.8542  168.0767 C.3     1  UNL1        0.1114
     29 C         143.6123  142.7322  169.1511 C.3     1  UNL1        0.0278
     30 C         142.9195  142.3697  166.6735 C.ar    1  UNL1        0.0938
     31 N         144.0128  142.4015  165.6469 N.ar    1  UNL1       -0.1723
     32 N         143.4507  142.9954  164.3894 N.ar    1  UNL1       -0.2480
     33 C         144.1981  143.2154  163.1076 C.3     1  UNL1        0.1537
     34 C         142.0100  143.3306  164.6387 C.ar    1  UNL1        0.0921
     35 C         141.6817  142.9439  166.0503 C.ar    1  UNL1        0.0137
     36 C         140.3495  143.1033  166.7210 C.3     1  UNL1        0.0340
@<TRIPOS>BOND
     1    19    20    1
     2    20    18    1
     3    18    12    1
     4    12    13   ar
     5    13    14   ar
     6    14    15   ar
     7    15     1    1
     8     1     2   ar
     9     2     3   ar
    10     3     4   ar
    11     4    26    1
    12    26    28    1
    13    28    29    1
    14    28    30    1
    15    30    31   ar
    16    31    32   ar
    17    32    33    1
    18    32    34   ar
    19    34    35   ar
    20    35    36    1
    21     4     5   ar
    22     5    21    1
    23    21    22   am
    24    21    23    2
    25     5     6   ar
    26     6     7   ar
    27     7     8   ar
    28     8     9   ar
    29     9    10   ar
    30    10    11    1
    31    15    16   ar
    32    16    17   ar
    33    17    12   ar
    34    10     1   ar
    35     8     3   ar
    36    35    30   ar
    37    26    27    1
    38    22    24    1
    39    22    25    1
@<TRIPOS>MOLECULE
*****
 36 39 0 0 0
SMALL
GASTEIGER

@<TRIPOS>ATOM
      1 C         141.0389  139.2895  165.4759 C.ar    1  UNL1        0.0291
      2 C         140.0188  139.8418  164.5249 C.ar    1  UNL1        0.0050
      3 C         140.0637  139.4634  163.0741 C.ar    1  UNL1        0.0311
      4 C         139.0436  140.0157  162.1231 C.ar    1  UNL1        0.0522
      5 C         139.0884  139.6373  160.6723 C.ar    1  UNL1        0.0853
      6 C         140.1534  138.7066  160.1725 C.ar    1  UNL1        0.1045
      7 N         141.1734  138.1544  161.1235 N.ar    1  UNL1       -0.2435
      8 C         141.1286  138.5327  162.5743 C.ar    1  UNL1        0.0847
      9 C         142.1487  137.9805  163.5253 C.ar    1  UNL1        0.0488
     10 C         142.1038  138.3589  164.9761 C.ar    1  UNL1        0.1416
     11 F         143.1240  137.8066  165.9271 F       1  UNL1       -0.2041
     12 C         140.9044  140.4246  169.8283 C.ar    1  UNL1        0.0888
     13 C         142.1962  140.5095  169.0707 C.ar    1  UNL1        0.0173
     14 C         142.2410  140.1312  167.6198 C.ar    1  UNL1        0.0029
     15 C         140.9941  139.6679  166.9267 C.ar    1  UNL1        0.0213
     16 C         139.7023  139.5829  167.6844 C.ar    1  UNL1        0.0986
     17 N         139.6574  139.9613  169.1351 N.ar    1  UNL1       -0.2457
     18 C         140.8595  140.8029  171.2791 C.3     1  UNL1        0.1876
     19 C         139.8773  143.1256  170.6543 C.3     1  UNL1        0.1747
     20 O         140.4314  142.1831  171.6813 O.3     1  UNL1       -0.3447
     21 C         138.0683  140.1895  159.7212 C.2     1  UNL1        0.2455
     22 N         138.4776  141.1874  158.6787 N.am    1  UNL1       -0.3252
     23 O         136.6390  139.7440  159.8127 O.2     1  UNL1       -0.2703
     24 H         139.4158  141.4798  158.6187 H       1  UNL1        0.1453
     25 H         137.8081  141.5498  158.0545 H       1  UNL1        0.1453
     26 N         137.9786  140.9463  162.6229 N.pl3   1  UNL1       -0.3292
     27 H         137.0664  140.6112  162.7804 H       1  UNL1        0.1471
     28 C         138.3036  142.3875  162.8827 C.3     1  UNL1        0.1114
     29 C         137.6866  143.0965  164.0517 C.3     1  UNL1        0.0278
     30 C         139.2457  143.1196  161.9736 C.ar    1  UNL1        0.0938
     31 N         138.9159  143.6632  160.6149 N.ar    1  UNL1       -0.1723
     32 N         140.1494  144.3162  160.0651 N.ar    1  UNL1       -0.2480
     33 C         140.2696  144.9907  158.7307 C.3     1  UNL1        0.1537
     34 C         141.2414  144.1762  161.0839 C.ar    1  UNL1        0.0921
     35 C         140.6828  143.4366  162.2633 C.ar    1  UNL1        0.0137
     36 C         141.4303  143.0772  163.5132 C.3     1  UNL1        0.0340
@<TRIPOS>BOND
     1    19    20    1
     2    20    18    1
     3    18    12    1
     4    12    13   ar
     5    13    14   ar
     6    14    15   ar
     7    15     1    1
     8     1     2   ar
     9     2     3   ar
    10     3     4   ar
    11     4    26    1
    12    26    28    1
    13    28    29    1
    14    28    30    1
    15    30    31   ar
    16    31    32   ar
    17    32    33    1
    18    32    34   ar
    19    34    35   ar
    20    35    36    1
    21     4     5   ar
    22     5    21    1
    23    21    22   am
    24    21    23    2
    25     5     6   ar
    26     6     7   ar
    27     7     8   ar
    28     8     9   ar
    29     9    10   ar
    30    10    11    1
    31    15    16   ar
    32    16    17   ar
    33    17    12   ar
    34    10     1   ar
    35     8     3   ar
    36    35    30   ar
    37    26    27    1
    38    22    24    1
    39    22    25    1
@<TRIPOS>MOLECULE
*****
 36 39 0 0 0
SMALL
GASTEIGER

@<TRIPOS>ATOM
      1 C         143.0654  141.8256  165.0226 C.ar    1  UNL1        0.0291
      2 C         142.0454  142.7549  164.4346 C.ar    1  UNL1        0.0050
      3 C         142.1205  143.1301  162.9842 C.ar    1  UNL1        0.0311
      4 C         141.1005  144.0596  162.3961 C.ar    1  UNL1        0.0522
      5 C         141.1757  144.4347  160.9458 C.ar    1  UNL1        0.0853
      6 C         142.2708  143.8806  160.0835 C.ar    1  UNL1        0.1045
      7 N         143.2908  142.9512  160.6715 N.ar    1  UNL1       -0.2435
      8 C         143.2157  142.5759  162.1219 C.ar    1  UNL1        0.0847
      9 C         144.2356  141.6466  162.7100 C.ar    1  UNL1        0.0488
     10 C         144.1605  141.2714  164.1603 C.ar    1  UNL1        0.1416
     11 F         145.1805  140.3419  164.7484 F       1  UNL1       -0.2041
     12 C         142.8400  140.6998  169.3738 C.ar    1  UNL1        0.0888
     13 C         143.2659  142.0826  168.9779 C.ar    1  UNL1        0.0173
     14 C         143.3410  142.4578  167.5275 C.ar    1  UNL1        0.0029
     15 C         142.9903  141.4503  166.4730 C.ar    1  UNL1        0.0213
     16 C         142.5645  140.0676  166.8689 C.ar    1  UNL1        0.0986
     17 N         142.4893  139.6923  168.3192 N.ar    1  UNL1       -0.2457
     18 C         142.7649  140.3246  170.8241 C.3     1  UNL1        0.1876
     19 C         140.6081  141.7417  171.1244 C.3     1  UNL1        0.1747
     20 O         141.7604  140.9875  171.7192 O.3     1  UNL1       -0.3447
     21 C         140.1556  145.3642  160.3577 C.2     1  UNL1        0.2455
     22 N         139.8033  145.2674  158.9029 N.am    1  UNL1       -0.3252
     23 O         139.4880  146.3903  161.2244 O.2     1  UNL1       -0.2703
     24 H         140.2415  144.5938  158.3340 H       1  UNL1        0.1453
     25 H         139.1339  145.8774  158.5169 H       1  UNL1        0.1453
     26 N         140.0054  144.6138  163.2584 N.pl3   1  UNL1       -0.3292
     27 H         140.0760  145.5280  163.6169 H       1  UNL1        0.1471
     28 C         138.8026  143.7750  163.5746 C.3     1  UNL1        0.1114
     29 C         137.8148  144.2382  164.6040 C.3     1  UNL1        0.0278
     30 C         138.5877  142.4730  162.8614 C.ar    1  UNL1        0.0938
     31 N         138.2306  142.3093  161.4137 N.ar    1  UNL1       -0.1723
     32 N         138.1144  140.8412  161.1282 N.ar    1  UNL1       -0.2480
     33 C         137.7728  140.2250  159.8040 C.3     1  UNL1        0.1537
     34 C         138.3996  140.0978  162.3994 C.ar    1  UNL1        0.0921
     35 C         138.6922  141.1063  163.4705 C.ar    1  UNL1        0.0137
     36 C         139.0299  140.8015  164.8999 C.3     1  UNL1        0.0340
@<TRIPOS>BOND
     1    19    20    1
     2    20    18    1
     3    18    12    1
     4    12    13   ar
     5    13    14   ar
     6    14    15   ar
     7    15     1    1
     8     1     2   ar
     9     2     3   ar
    10     3     4   ar
    11     4    26    1
    12    26    28    1
    13    28    29    1
    14    28    30    1
    15    30    31   ar
    16    31    32   ar
    17    32    33    1
    18    32    34   ar
    19    34    35   ar
    20    35    36    1
    21     4     5   ar
    22     5    21    1
    23    21    22   am
    24    21    23    2
    25     5     6   ar
    26     6     7   ar
    27     7     8   ar
    28     8     9   ar
    29     9    10   ar
    30    10    11    1
    31    15    16   ar
    32    16    17   ar
    33    17    12   ar
    34    10     1   ar
    35     8     3   ar
    36    35    30   ar
    37    26    27    1
    38    22    24    1
    39    22    25    1
@<TRIPOS>MOLECULE
*****
 36 39 0 0 0
SMALL
GASTEIGER

@<TRIPOS>ATOM
      1 C         139.9348  139.2086  165.3026 C.ar    1  UNL1        0.0291
      2 C         140.5959  140.0268  164.2333 C.ar    1  UNL1        0.0050
      3 C         140.3981  139.6739  162.7889 C.ar    1  UNL1        0.0311
      4 C         141.0592  140.4921  161.7195 C.ar    1  UNL1        0.0522
      5 C         140.8613  140.1392  160.2752 C.ar    1  UNL1        0.0853
      6 C         140.0023  138.9681  159.9001 C.ar    1  UNL1        0.1045
      7 N         139.3412  138.1499  160.9694 N.ar    1  UNL1       -0.2435
      8 C         139.5391  138.5028  162.4138 C.ar    1  UNL1        0.0847
      9 C         138.8779  137.6846  163.4831 C.ar    1  UNL1        0.0488
     10 C         139.0758  138.0375  164.9275 C.ar    1  UNL1        0.1416
     11 F         138.4147  137.2193  165.9969 F       1  UNL1       -0.2041
     12 C         140.5283  140.2672  169.6359 C.ar    1  UNL1        0.0888
     13 C         141.7070  140.2082  168.7101 C.ar    1  UNL1        0.0173
     14 C         141.5092  139.8553  167.2656 C.ar    1  UNL1        0.0029
     15 C         140.1327  139.5615  166.7471 C.ar    1  UNL1        0.0213
     16 C         138.9540  139.6205  167.6729 C.ar    1  UNL1        0.0986
     17 N         139.1518  139.9733  169.1173 N.ar    1  UNL1       -0.2457
     18 C         140.7261  140.6200  171.0803 C.3     1  UNL1        0.1876
     19 C         139.9168  143.0425  170.6040 C.3     1  UNL1        0.1747
     20 O         140.4756  142.0221  171.5509 O.3     1  UNL1       -0.3447
     21 C         141.5225  140.9574  159.2058 C.2     1  UNL1        0.2455
     22 N         140.6893  141.6487  158.1676 N.am    1  UNL1       -0.3252
     23 O         143.0168  141.0842  159.1746 O.2     1  UNL1       -0.2703
     24 H         139.7085  141.5654  158.1880 H       1  UNL1        0.1453
     25 H         141.1232  142.1857  157.4657 H       1  UNL1        0.1453
     26 N         141.9182  141.6631  162.0946 N.pl3   1  UNL1       -0.3292
     27 H         142.8337  141.5161  162.4256 H       1  UNL1        0.1471
     28 C         141.3824  143.0583  161.9654 C.3     1  UNL1        0.1114
     29 C         142.0321  144.0269  161.0223 C.3     1  UNL1        0.0278
     30 C         140.1968  143.4846  162.7794 C.ar    1  UNL1        0.0938
     31 N         140.2433  144.1681  164.1139 N.ar    1  UNL1       -0.1723
     32 N         138.8317  144.4082  164.5611 N.ar    1  UNL1       -0.2480
     33 C         138.4127  145.0676  165.8415 C.3     1  UNL1        0.1537
     34 C         137.9129  143.8733  163.5030 C.ar    1  UNL1        0.0921
     35 C         138.7565  143.3025  162.4019 C.ar    1  UNL1        0.0137
     36 C         138.2490  142.6619  161.1441 C.3     1  UNL1        0.0340
@<TRIPOS>BOND
     1    19    20    1
     2    20    18    1
     3    18    12    1
     4    12    13   ar
     5    13    14   ar
     6    14    15   ar
     7    15     1    1
     8     1     2   ar
     9     2     3   ar
    10     3     4   ar
    11     4    26    1
    12    26    28    1
    13    28    29    1
    14    28    30    1
    15    30    31   ar
    16    31    32   ar
    17    32    33    1
    18    32    34   ar
    19    34    35   ar
    20    35    36    1
    21     4     5   ar
    22     5    21    1
    23    21    22   am
    24    21    23    2
    25     5     6   ar
    26     6     7   ar
    27     7     8   ar
    28     8     9   ar
    29     9    10   ar
    30    10    11    1
    31    15    16   ar
    32    16    17   ar
    33    17    12   ar
    34    10     1   ar
    35     8     3   ar
    36    35    30   ar
    37    26    27    1
    38    22    24    1
    39    22    25    1
@<TRIPOS>MOLECULE
*****
 36 39 0 0 0
SMALL
GASTEIGER

@<TRIPOS>ATOM
      1 C         139.4526  141.8134  163.2040 C.ar    1  UNL1        0.0291
      2 C         139.9228  141.9948  164.6168 C.ar    1  UNL1        0.0050
      3 C         139.4424  141.0660  165.6921 C.ar    1  UNL1        0.0311
      4 C         139.9126  141.2474  167.1050 C.ar    1  UNL1        0.0522
      5 C         139.4322  140.3185  168.1804 C.ar    1  UNL1        0.0853
      6 C         138.4817  139.2083  167.8429 C.ar    1  UNL1        0.1045
      7 N         138.0115  139.0269  166.4302 N.ar    1  UNL1       -0.2435
      8 C         138.4919  139.9557  165.3547 C.ar    1  UNL1        0.0847
      9 C         138.0217  139.7743  163.9419 C.ar    1  UNL1        0.0488
     10 C         138.5021  140.7032  162.8666 C.ar    1  UNL1        0.1416
     11 F         138.0319  140.5218  161.4537 F       1  UNL1       -0.2041
     12 C         140.8936  144.6000  159.9777 C.ar    1  UNL1        0.0888
     13 C         141.5468  143.2621  160.1599 C.ar    1  UNL1        0.0173
     14 C         141.0665  142.3332  161.2354 C.ar    1  UNL1        0.0029
     15 C         139.9330  142.7423  162.1285 C.ar    1  UNL1        0.0213
     16 C         139.2798  144.0802  161.9463 C.ar    1  UNL1        0.0986
     17 N         139.7601  145.0091  160.8709 N.ar    1  UNL1       -0.2457
     18 C         141.3739  145.5289  158.9023 C.3     1  UNL1        0.1876
     19 C         139.8191  144.8371  156.9391 C.3     1  UNL1        0.1747
     20 O         140.4605  145.9058  157.7738 O.3     1  UNL1       -0.3447
     21 C         139.9024  140.4999  169.5932 C.2     1  UNL1        0.2455
     22 N         140.7864  139.4676  170.2278 N.am    1  UNL1       -0.3252
     23 O         139.4885  141.7136  170.3714 O.2     1  UNL1       -0.2703
     24 H         141.0581  138.6710  169.7171 H       1  UNL1        0.1453
     25 H         141.0950  139.5866  171.1551 H       1  UNL1        0.1453
     26 N         140.8631  142.3576  167.4424 N.pl3   1  UNL1       -0.3292
     27 H         140.5222  143.2689  167.5925 H       1  UNL1        0.1471
     28 C         142.3331  142.0794  167.5511 C.3     1  UNL1        0.1114
     29 C         143.0375  142.2694  168.8616 C.3     1  UNL1        0.0278
     30 C         143.0986  141.6111  166.3491 C.ar    1  UNL1        0.0938
     31 N         143.8646  142.4817  165.3975 N.ar    1  UNL1       -0.1723
     32 N         144.4719  141.5986  164.3480 N.ar    1  UNL1       -0.2480
     33 C         145.3209  142.0522  163.1975 C.3     1  UNL1        0.1537
     34 C         144.0813  140.1824  164.6509 C.ar    1  UNL1        0.0921
     35 C         143.2326  140.1901  165.8877 C.ar    1  UNL1        0.0137
     36 C         142.6245  138.9879  166.5472 C.3     1  UNL1        0.0340
@<TRIPOS>BOND
     1    19    20    1
     2    20    18    1
     3    18    12    1
     4    12    13   ar
     5    13    14   ar
     6    14    15   ar
     7    15     1    1
     8     1     2   ar
     9     2     3   ar
    10     3     4   ar
    11     4    26    1
    12    26    28    1
    13    28    29    1
    14    28    30    1
    15    30    31   ar
    16    31    32   ar
    17    32    33    1
    18    32    34   ar
    19    34    35   ar
    20    35    36    1
    21     4     5   ar
    22     5    21    1
    23    21    22   am
    24    21    23    2
    25     5     6   ar
    26     6     7   ar
    27     7     8   ar
    28     8     9   ar
    29     9    10   ar
    30    10    11    1
    31    15    16   ar
    32    16    17   ar
    33    17    12   ar
    34    10     1   ar
    35     8     3   ar
    36    35    30   ar
    37    26    27    1
    38    22    24    1
    39    22    25    1
@<TRIPOS>MOLECULE
*****
 36 39 0 0 0
SMALL
GASTEIGER

@<TRIPOS>ATOM
      1 C         140.1972  139.0977  165.4586 C.ar    1  UNL1        0.0291
      2 C         141.1276  139.6245  164.4066 C.ar    1  UNL1        0.0050
      3 C         140.9551  139.2078  162.9761 C.ar    1  UNL1        0.0311
      4 C         141.8856  139.7346  161.9240 C.ar    1  UNL1        0.0522
      5 C         141.7131  139.3178  160.4934 C.ar    1  UNL1        0.0853
      6 C         140.6102  138.3743  160.1149 C.ar    1  UNL1        0.1045
      7 N         139.6798  137.8475  161.1668 N.ar    1  UNL1       -0.2435
      8 C         139.8522  138.2642  162.5975 C.ar    1  UNL1        0.0847
      9 C         138.9218  137.7374  163.6495 C.ar    1  UNL1        0.0488
     10 C         139.0943  138.1542  165.0800 C.ar    1  UNL1        0.1416
     11 F         138.1638  137.6274  166.1321 F       1  UNL1       -0.2041
     12 C         140.7144  140.3480  169.7504 C.ar    1  UNL1        0.0888
     13 C         141.9147  140.1951  168.8639 C.ar    1  UNL1        0.0173
     14 C         141.7423  139.7784  167.4333 C.ar    1  UNL1        0.0029
     15 C         140.3696  139.5145  166.8892 C.ar    1  UNL1        0.0213
     16 C         139.1693  139.6674  167.7757 C.ar    1  UNL1        0.0986
     17 N         139.3417  140.0841  169.2063 N.ar    1  UNL1       -0.2457
     18 C         140.8868  140.7647  171.1810 C.3     1  UNL1        0.1876
     19 C         139.9826  143.1387  170.6366 C.3     1  UNL1        0.1747
     20 O         140.3698  142.0951  171.6421 O.3     1  UNL1       -0.3447
     21 C         142.6436  139.8447  159.4413 C.2     1  UNL1        0.2455
     22 N         142.1060  140.6689  158.3093 N.am    1  UNL1       -0.3252
     23 O         144.1116  139.5473  159.5214 O.2     1  UNL1       -0.2703
     24 H         141.1425  140.8641  158.2567 H       1  UNL1        0.1453
     25 H         142.7166  141.0146  157.6188 H       1  UNL1        0.1453
     26 N         142.9885  140.6782  162.3025 N.pl3   1  UNL1       -0.3292
     27 H         143.8409  140.3261  162.6472 H       1  UNL1        0.1471
     28 C         142.7927  142.1581  162.1560 C.3     1  UNL1        0.1114
     29 C         143.7369  142.9594  161.3095 C.3     1  UNL1        0.0278
     30 C         141.6527  142.8368  162.8559 C.ar    1  UNL1        0.0938
     31 N         140.3740  143.2946  162.2189 N.ar    1  UNL1       -0.1723
     32 N         139.5223  143.9175  163.2851 N.ar    1  UNL1       -0.2480
     33 C         138.1579  144.5093  163.0897 C.3     1  UNL1        0.1537
     34 C         140.2745  143.8447  164.5808 C.ar    1  UNL1        0.0921
     35 C         141.5911  143.1768  164.3155 C.ar    1  UNL1        0.0137
     36 C         142.6588  142.8979  165.3316 C.3     1  UNL1        0.0340
@<TRIPOS>BOND
     1    19    20    1
     2    20    18    1
     3    18    12    1
     4    12    13   ar
     5    13    14   ar
     6    14    15   ar
     7    15     1    1
     8     1     2   ar
     9     2     3   ar
    10     3     4   ar
    11     4    26    1
    12    26    28    1
    13    28    29    1
    14    28    30    1
    15    30    31   ar
    16    31    32   ar
    17    32    33    1
    18    32    34   ar
    19    34    35   ar
    20    35    36    1
    21     4     5   ar
    22     5    21    1
    23    21    22   am
    24    21    23    2
    25     5     6   ar
    26     6     7   ar
    27     7     8   ar
    28     8     9   ar
    29     9    10   ar
    30    10    11    1
    31    15    16   ar
    32    16    17   ar
    33    17    12   ar
    34    10     1   ar
    35     8     3   ar
    36    35    30   ar
    37    26    27    1
    38    22    24    1
    39    22    25    1
@<TRIPOS>MOLECULE
*****
 36 39 0 0 0
SMALL
GASTEIGER

@<TRIPOS>ATOM
      1 C         142.9156  142.1082  165.3902 C.ar    1  UNL1        0.0291
      2 C         142.3899  140.9915  164.5377 C.ar    1  UNL1        0.0050
      3 C         142.9080  140.8054  163.1424 C.ar    1  UNL1        0.0311
      4 C         142.3823  139.6887  162.2899 C.ar    1  UNL1        0.0522
      5 C         142.9004  139.5026  160.8946 C.ar    1  UNL1        0.0853
      6 C         143.9441  140.4332  160.3517 C.ar    1  UNL1        0.1045
      7 N         144.4698  141.5498  161.2042 N.ar    1  UNL1       -0.2435
      8 C         143.9517  141.7360  162.5996 C.ar    1  UNL1        0.0847
      9 C         144.4774  142.8526  163.4520 C.ar    1  UNL1        0.0488
     10 C         143.9593  143.0387  164.8473 C.ar    1  UNL1        0.1416
     11 F         144.4850  144.1554  165.6999 F       1  UNL1       -0.2041
     12 C         141.3614  142.6666  169.5763 C.ar    1  UNL1        0.0888
     13 C         140.4175  142.7241  168.4119 C.ar    1  UNL1        0.0173
     14 C         140.9356  142.5380  167.0165 C.ar    1  UNL1        0.0029
     15 C         142.3975  142.2943  166.7856 C.ar    1  UNL1        0.0213
     16 C         143.3414  142.2368  167.9499 C.ar    1  UNL1        0.0986
     17 N         142.8234  142.4229  169.3452 N.ar    1  UNL1       -0.2457
     18 C         140.8434  142.8527  170.9716 C.3     1  UNL1        0.1876
     19 C         140.4845  140.2882  171.1825 C.3     1  UNL1        0.1747
     20 O         140.4414  141.6601  171.7877 O.3     1  UNL1       -0.3447
     21 C         142.3747  138.3860  160.0420 C.2     1  UNL1        0.2455
     22 N         142.9650  137.0119  160.1582 N.am    1  UNL1       -0.3252
     23 O         141.2587  138.6434  159.0733 O.2     1  UNL1       -0.2703
     24 H         143.6974  136.8430  160.7940 H       1  UNL1        0.1453
     25 H         142.6200  136.2790  159.5987 H       1  UNL1        0.1453
     26 N         141.3385  138.7582  162.8327 N.pl3   1  UNL1       -0.3292
     27 H         141.6066  137.9736  163.3636 H       1  UNL1        0.1471
     28 C         139.8862  139.0231  162.5667 C.3     1  UNL1        0.1114
     29 C         139.0775  138.0398  161.7735 C.3     1  UNL1        0.0278
     30 C         139.2426  140.2712  163.0939 C.ar    1  UNL1        0.0938
     31 N         139.0547  141.5532  162.3381 N.ar    1  UNL1       -0.1723
     32 N         138.3699  142.5308  163.2466 N.ar    1  UNL1       -0.2480
     33 C         137.9875  143.9389  162.8989 C.3     1  UNL1        0.1537
     34 C         138.1347  141.8531  164.5640 C.ar    1  UNL1        0.0921
     35 C         138.6741  140.4566  164.4696 C.ar    1  UNL1        0.0137
     36 C         138.6492  139.4263  165.5595 C.3     1  UNL1        0.0340
@<TRIPOS>BOND
     1    19    20    1
     2    20    18    1
     3    18    12    1
     4    12    13   ar
     5    13    14   ar
     6    14    15   ar
     7    15     1    1
     8     1     2   ar
     9     2     3   ar
    10     3     4   ar
    11     4    26    1
    12    26    28    1
    13    28    29    1
    14    28    30    1
    15    30    31   ar
    16    31    32   ar
    17    32    33    1
    18    32    34   ar
    19    34    35   ar
    20    35    36    1
    21     4     5   ar
    22     5    21    1
    23    21    22   am
    24    21    23    2
    25     5     6   ar
    26     6     7   ar
    27     7     8   ar
    28     8     9   ar
    29     9    10   ar
    30    10    11    1
    31    15    16   ar
    32    16    17   ar
    33    17    12   ar
    34    10     1   ar
    35     8     3   ar
    36    35    30   ar
    37    26    27    1
    38    22    24    1
    39    22    25    1
