@<TRIPOS>MOLECULE
*****
 28 31 0 0 0
SMALL
GASTEIGER

@<TRIPOS>ATOM
      1 C         139.2438  138.7724  163.1702 C.3     1  UNL1        0.0559
      2 C         139.4410  139.8603  164.1839 C.3     1  UNL1        0.2097
      3 N         139.6437  139.6662  165.6574 N.pl3   1  UNL1       -0.2171
      4 C         139.7981  141.0192  166.2863 C.2     1  UNL1        0.3316
      5 N         139.6908  142.0496  165.2015 N.2     1  UNL1       -0.0602
      6 C         139.4701  141.3334  163.9022 C.3     1  UNL1        0.2515
      7 H         139.6707  138.8024  166.1290 H       1  UNL1        0.2923
      8 C         140.0208  141.2937  167.7441 C.2     1  UNL1        0.1544
      9 C         140.6152  142.6004  168.1791 C.2     1  UNL1        0.0200
     10 C         140.8378  142.8748  169.6368 C.2     1  UNL1       -0.0149
     11 C         140.4660  141.8424  170.6597 C.3     1  UNL1        0.1132
     12 C         139.8717  140.5357  170.2247 C.2     1  UNL1        0.2502
     13 O         139.4999  139.5034  171.2475 O.2     1  UNL1       -0.2726
     14 N         139.6490  140.2614  168.7670 N.am    1  UNL1       -0.1714
     15 C         139.2456  140.9064  162.4818 C.ar    1  UNL1        0.0297
     16 C         140.4125  140.7503  161.5523 C.ar    1  UNL1        0.0025
     17 C         140.1881  140.3233  160.1319 C.ar    1  UNL1        0.0295
     18 C         138.7969  140.0524  159.6412 C.ar    1  UNL1        0.1401
     19 F         138.5724  139.6255  158.2209 F       1  UNL1       -0.2042
     20 C         137.6298  140.2086  160.5707 C.ar    1  UNL1        0.0295
     21 C         137.8543  140.6355  161.9910 C.ar    1  UNL1        0.0025
     22 C         139.4523  142.7171  163.3234 C.ar    1  UNL1        0.0488
     23 C         140.7423  143.4227  163.0270 C.ar    1  UNL1        0.0057
     24 C         140.7245  144.8065  162.4482 C.ar    1  UNL1        0.0495
     25 C         139.4166  145.4846  162.1660 C.ar    1  UNL1        0.2223
     26 F         139.3989  146.8684  161.5872 F       1  UNL1       -0.1832
     27 N         138.1267  144.7790  162.4624 N.ar    1  UNL1       -0.2166
     28 C         138.1444  143.3952  163.0412 C.ar    1  UNL1        0.1014
@<TRIPOS>BOND
     1     2     1    1
     2     2     3    1
     3     3     4    1
     4     4     8    1
     5     8     9    1
     6     9    10    2
     7    10    11    1
     8    11    12    1
     9    12    13    2
    10    12    14    1
    11     4     5    2
    12     5     6    1
    13     6    15    1
    14    15    16   ar
    15    16    17   ar
    16    17    18   ar
    17    18    19    1
    18    18    20   ar
    19    20    21   ar
    20     6    22    1
    21    22    23   ar
    22    23    24   ar
    23    24    25   ar
    24    25    26    1
    25    25    27   ar
    26    27    28   ar
    27     6     2    1
    28    21    15   ar
    29    28    22   ar
    30    14     8    2
    31     3     7    1
@<TRIPOS>MOLECULE
*****
 28 31 0 0 0
SMALL
GASTEIGER

@<TRIPOS>ATOM
      1 C         139.2400  138.7475  163.4292 C.3     1  UNL1        0.0559
      2 C         139.4431  139.8506  164.4251 C.3     1  UNL1        0.2097
      3 N         139.6475  139.6793  165.9012 N.pl3   1  UNL1       -0.2171
      4 C         139.8083  141.0415  166.5081 C.2     1  UNL1        0.3316
      5 N         139.7032  142.0549  165.4072 N.2     1  UNL1       -0.0602
      6 C         139.4776  141.3189  164.1198 C.3     1  UNL1        0.2515
      7 H         139.6719  138.8230  166.3864 H       1  UNL1        0.2923
      8 C         140.0344  141.3383  167.9610 C.2     1  UNL1        0.1544
      9 C         139.9143  140.2423  168.9780 C.2     1  UNL1        0.0200
     10 C         140.1404  140.5391  170.4308 C.2     1  UNL1       -0.0149
     11 C         140.4866  141.9320  170.8667 C.3     1  UNL1        0.1132
     12 C         140.6067  143.0281  169.8497 C.2     1  UNL1        0.2502
     13 O         140.9529  144.4209  170.2856 O.2     1  UNL1       -0.2726
     14 N         140.3806  142.7312  168.3969 N.am    1  UNL1       -0.1714
     15 C         139.2491  140.8702  162.7068 C.ar    1  UNL1        0.0297
     16 C         140.4151  140.6795  161.7827 C.ar    1  UNL1        0.0025
     17 C         140.1867  140.2308  160.3696 C.ar    1  UNL1        0.0295
     18 C         138.7923  139.9728  159.8809 C.ar    1  UNL1        0.1401
     19 F         138.5638  139.5241  158.4679 F       1  UNL1       -0.2042
     20 C         137.6262  140.1635  160.8051 C.ar    1  UNL1        0.0295
     21 C         137.8546  140.6122  162.2180 C.ar    1  UNL1        0.0025
     22 C         139.4642  142.6933  163.5191 C.ar    1  UNL1        0.0488
     23 C         140.7538  143.4246  163.2909 C.ar    1  UNL1        0.0057
     24 C         140.7405  144.7990  162.6902 C.ar    1  UNL1        0.0495
     25 C         139.4375  145.4420  162.3176 C.ar    1  UNL1        0.2223
     26 F         139.4243  146.8165  161.7169 F       1  UNL1       -0.1832
     27 N         138.1480  144.7108  162.5458 N.ar    1  UNL1       -0.2166
     28 C         138.1613  143.3363  163.1465 C.ar    1  UNL1        0.1014
@<TRIPOS>BOND
     1     2     1    1
     2     2     3    1
     3     3     4    1
     4     4     8    1
     5     8     9    1
     6     9    10    2
     7    10    11    1
     8    11    12    1
     9    12    13    2
    10    12    14    1
    11     4     5    2
    12     5     6    1
    13     6    15    1
    14    15    16   ar
    15    16    17   ar
    16    17    18   ar
    17    18    19    1
    18    18    20   ar
    19    20    21   ar
    20     6    22    1
    21    22    23   ar
    22    23    24   ar
    23    24    25   ar
    24    25    26    1
    25    25    27   ar
    26    27    28   ar
    27     6     2    1
    28    21    15   ar
    29    28    22   ar
    30    14     8    2
    31     3     7    1
@<TRIPOS>MOLECULE
*****
 28 31 0 0 0
SMALL
GASTEIGER

@<TRIPOS>ATOM
      1 C         140.7855  137.4572  163.4874 C.3     1  UNL1        0.0559
      2 C         140.8811  138.6185  164.4319 C.3     1  UNL1        0.2097
      3 N         140.2317  138.7139  165.7807 N.pl3   1  UNL1       -0.2171
      4 C         140.5923  140.0428  166.3758 C.2     1  UNL1        0.3316
      5 N         141.4645  140.7687  165.3950 N.2     1  UNL1       -0.0602
      6 C         141.6431  139.8885  164.1936 C.3     1  UNL1        0.2515
      7 H         139.6678  138.0253  166.2014 H       1  UNL1        0.2923
      8 C         140.1569  140.5556  167.7166 C.2     1  UNL1        0.1544
      9 C         140.7025  141.8524  168.2368 C.2     1  UNL1        0.0200
     10 C         140.2672  142.3652  169.5775 C.2     1  UNL1       -0.0149
     11 C         139.2862  141.5812  170.3979 C.3     1  UNL1        0.1132
     12 C         138.7406  140.2845  169.8777 C.2     1  UNL1        0.2502
     13 O         137.7596  139.5005  170.6981 O.2     1  UNL1       -0.2726
     14 N         139.1759  139.7717  168.5370 N.am    1  UNL1       -0.1714
     15 C         141.9964  139.2456  162.8851 C.ar    1  UNL1        0.0297
     16 C         143.2580  138.4441  162.7598 C.ar    1  UNL1        0.0025
     17 C         143.6114  137.8012  161.4513 C.ar    1  UNL1        0.0295
     18 C         142.7030  137.9599  160.2683 C.ar    1  UNL1        0.1401
     19 F         143.0563  137.3171  158.9599 F       1  UNL1       -0.2042
     20 C         141.4412  138.7615  160.3936 C.ar    1  UNL1        0.0295
     21 C         141.0880  139.4043  161.7021 C.ar    1  UNL1        0.0025
     22 C         142.4789  141.0240  163.6816 C.ar    1  UNL1        0.0488
     23 C         143.9491  141.0653  163.9761 C.ar    1  UNL1        0.0057
     24 C         144.7849  142.2008  163.4642 C.ar    1  UNL1        0.0495
     25 C         144.1505  143.2949  162.6577 C.ar    1  UNL1        0.2223
     26 F         144.9864  144.4305  162.1458 F       1  UNL1       -0.1832
     27 N         142.6804  143.2536  162.3632 N.ar    1  UNL1       -0.2166
     28 C         141.8445  142.1181  162.8751 C.ar    1  UNL1        0.1014
@<TRIPOS>BOND
     1     2     1    1
     2     2     3    1
     3     3     4    1
     4     4     8    1
     5     8     9    1
     6     9    10    2
     7    10    11    1
     8    11    12    1
     9    12    13    2
    10    12    14    1
    11     4     5    2
    12     5     6    1
    13     6    15    1
    14    15    16   ar
    15    16    17   ar
    16    17    18   ar
    17    18    19    1
    18    18    20   ar
    19    20    21   ar
    20     6    22    1
    21    22    23   ar
    22    23    24   ar
    23    24    25   ar
    24    25    26    1
    25    25    27   ar
    26    27    28   ar
    27     6     2    1
    28    21    15   ar
    29    28    22   ar
    30    14     8    2
    31     3     7    1
@<TRIPOS>MOLECULE
*****
 28 31 0 0 0
SMALL
GASTEIGER

@<TRIPOS>ATOM
      1 C         139.8637  138.9597  164.0479 C.3     1  UNL1        0.0559
      2 C         140.2809  140.1167  164.9064 C.3     1  UNL1        0.2097
      3 N         140.8022  140.0301  166.3103 N.pl3   1  UNL1       -0.2171
      4 C         141.0936  141.4234  166.7834 C.2     1  UNL1        0.3316
      5 N         140.7525  142.3712  165.6719 N.2     1  UNL1       -0.0602
      6 C         140.2502  141.5636  164.5119 C.3     1  UNL1        0.2515
      7 H         140.9305  139.2039  166.8299 H       1  UNL1        0.2923
      8 C         141.6317  141.8024  168.1313 C.2     1  UNL1        0.1544
      9 C         143.0809  142.1561  168.2879 C.2     1  UNL1        0.0200
     10 C         143.6190  142.5351  169.6358 C.2     1  UNL1       -0.0149
     11 C         142.7078  142.5603  170.8271 C.3     1  UNL1        0.1132
     12 C         141.2586  142.2066  170.6705 C.2     1  UNL1        0.2502
     13 O         140.3474  142.2319  171.8617 O.2     1  UNL1       -0.2726
     14 N         140.7205  141.8277  169.3226 N.am    1  UNL1       -0.1714
     15 C         139.7183  141.0355  163.2126 C.ar    1  UNL1        0.0297
     16 C         138.2490  140.7800  163.0522 C.ar    1  UNL1        0.0025
     17 C         137.7170  140.2518  161.7529 C.ar    1  UNL1        0.0295
     18 C         138.6543  139.9791  160.6142 C.ar    1  UNL1        0.1401
     19 F         138.1224  139.4509  159.3149 F       1  UNL1       -0.2042
     20 C         140.1238  140.2345  160.7746 C.ar    1  UNL1        0.0295
     21 C         140.6557  140.7627  162.0738 C.ar    1  UNL1        0.0025
     22 C         140.1083  142.9001  163.8457 C.ar    1  UNL1        0.0488
     23 C         138.7505  143.5166  163.6832 C.ar    1  UNL1        0.0057
     24 C         138.6086  144.8531  163.0170 C.ar    1  UNL1        0.0495
     25 C         139.8244  145.5729  162.5134 C.ar    1  UNL1        0.2223
     26 F         139.6824  146.9094  161.8471 F       1  UNL1       -0.1832
     27 N         141.1820  144.9564  162.6759 N.ar    1  UNL1       -0.2166
     28 C         141.3241  143.6199  163.3421 C.ar    1  UNL1        0.1014
@<TRIPOS>BOND
     1     2     1    1
     2     2     3    1
     3     3     4    1
     4     4     8    1
     5     8     9    1
     6     9    10    2
     7    10    11    1
     8    11    12    1
     9    12    13    2
    10    12    14    1
    11     4     5    2
    12     5     6    1
    13     6    15    1
    14    15    16   ar
    15    16    17   ar
    16    17    18   ar
    17    18    19    1
    18    18    20   ar
    19    20    21   ar
    20     6    22    1
    21    22    23   ar
    22    23    24   ar
    23    24    25   ar
    24    25    26    1
    25    25    27   ar
    26    27    28   ar
    27     6     2    1
    28    21    15   ar
    29    28    22   ar
    30    14     8    2
    31     3     7    1
@<TRIPOS>MOLECULE
*****
 28 31 0 0 0
SMALL
GASTEIGER

@<TRIPOS>ATOM
      1 C         138.0811  140.6334  164.0631 C.3     1  UNL1        0.0559
      2 C         139.1584  140.9731  165.0500 C.3     1  UNL1        0.2097
      3 N         139.2545  140.4678  166.4591 N.pl3   1  UNL1       -0.2171
      4 C         140.4843  141.0601  167.0811 C.2     1  UNL1        0.3316
      5 N         141.1483  141.9314  166.0565 N.2     1  UNL1       -0.0602
      6 C         140.3289  141.8776  164.8012 C.3     1  UNL1        0.2515
      7 H         138.6215  139.8551  166.8986 H       1  UNL1        0.2923
      8 C         140.9656  140.8227  168.4819 C.2     1  UNL1        0.1544
      9 C         141.9893  139.7605  168.7533 C.2     1  UNL1        0.0200
     10 C         142.4705  139.5232  170.1540 C.2     1  UNL1       -0.0149
     11 C         141.9280  140.3480  171.2833 C.3     1  UNL1        0.1132
     12 C         140.9042  141.4102  171.0119 C.2     1  UNL1        0.2502
     13 O         140.3617  142.2350  172.1412 O.2     1  UNL1       -0.2726
     14 N         140.4230  141.6475  169.6112 N.am    1  UNL1       -0.1714
     15 C         139.7279  142.0191  163.4342 C.ar    1  UNL1        0.0297
     16 C         140.1634  141.1075  162.3255 C.ar    1  UNL1        0.0025
     17 C         139.5624  141.2489  160.9583 C.ar    1  UNL1        0.0295
     18 C         138.5260  142.3020  160.7001 C.ar    1  UNL1        0.1401
     19 F         137.9250  142.4435  159.3330 F       1  UNL1       -0.2042
     20 C         138.0905  143.2137  161.8088 C.ar    1  UNL1        0.0295
     21 C         138.6915  143.0722  163.1759 C.ar    1  UNL1        0.0025
     22 C         141.3737  142.8117  164.2665 C.ar    1  UNL1        0.0488
     23 C         141.1670  144.2951  164.3500 C.ar    1  UNL1        0.0057
     24 C         142.2118  145.2292  163.8154 C.ar    1  UNL1        0.0495
     25 C         143.4632  144.6799  163.1972 C.ar    1  UNL1        0.2223
     26 F         144.5080  145.6141  162.6625 F       1  UNL1       -0.1832
     27 N         143.6699  143.1967  163.1137 N.ar    1  UNL1       -0.2166
     28 C         142.6251  142.2625  163.6483 C.ar    1  UNL1        0.1014
@<TRIPOS>BOND
     1     2     1    1
     2     2     3    1
     3     3     4    1
     4     4     8    1
     5     8     9    1
     6     9    10    2
     7    10    11    1
     8    11    12    1
     9    12    13    2
    10    12    14    1
    11     4     5    2
    12     5     6    1
    13     6    15    1
    14    15    16   ar
    15    16    17   ar
    16    17    18   ar
    17    18    19    1
    18    18    20   ar
    19    20    21   ar
    20     6    22    1
    21    22    23   ar
    22    23    24   ar
    23    24    25   ar
    24    25    26    1
    25    25    27   ar
    26    27    28   ar
    27     6     2    1
    28    21    15   ar
    29    28    22   ar
    30    14     8    2
    31     3     7    1
@<TRIPOS>MOLECULE
*****
 28 31 0 0 0
SMALL
GASTEIGER

@<TRIPOS>ATOM
      1 C         140.9022  137.6050  164.8291 C.3     1  UNL1        0.0559
      2 C         140.7078  138.1855  163.4597 C.3     1  UNL1        0.2097
      3 N         141.1548  137.5670  162.1683 N.pl3   1  UNL1       -0.2171
      4 C         140.7556  138.4857  161.0517 C.2     1  UNL1        0.3316
      5 N         140.0618  139.6719  161.6530 N.2     1  UNL1       -0.0602
      6 C         140.0323  139.4864  163.1412 C.3     1  UNL1        0.2515
      7 H         141.6273  136.7088  162.0707 H       1  UNL1        0.2923
      8 C         141.0061  138.2580  159.5904 C.2     1  UNL1        0.1544
      9 C         142.4097  138.0988  159.0860 C.2     1  UNL1        0.0200
     10 C         142.6602  137.8712  157.6247 C.2     1  UNL1       -0.0149
     11 C         141.5070  137.8028  156.6678 C.3     1  UNL1        0.1132
     12 C         140.1034  137.9620  157.1722 C.2     1  UNL1        0.2502
     13 O         138.9503  137.8937  156.2153 O.2     1  UNL1       -0.2726
     14 N         139.8530  138.1897  158.6335 N.am    1  UNL1       -0.1714
     15 C         139.8538  139.5767  164.6278 C.ar    1  UNL1        0.0297
     16 C         138.5909  139.0756  165.2633 C.ar    1  UNL1        0.0025
     17 C         138.4123  139.1659  166.7500 C.ar    1  UNL1        0.0295
     18 C         139.4966  139.7574  167.6010 C.ar    1  UNL1        0.1401
     19 F         139.3181  139.8477  169.0876 F       1  UNL1       -0.2042
     20 C         140.7596  140.2586  166.9655 C.ar    1  UNL1        0.0295
     21 C         140.9381  140.1682  165.4789 C.ar    1  UNL1        0.0025
     22 C         139.3194  140.8061  163.1336 C.ar    1  UNL1        0.0488
     23 C         140.0802  142.0710  163.4005 C.ar    1  UNL1        0.0057
     24 C         139.3674  143.3908  163.3928 C.ar    1  UNL1        0.0495
     25 C         137.8937  143.4456  163.1183 C.ar    1  UNL1        0.2223
     26 F         137.1809  144.7655  163.1107 F       1  UNL1       -0.1832
     27 N         137.1330  142.1808  162.8515 N.ar    1  UNL1       -0.2166
     28 C         137.8458  140.8610  162.8591 C.ar    1  UNL1        0.1014
@<TRIPOS>BOND
     1     2     1    1
     2     2     3    1
     3     3     4    1
     4     4     8    1
     5     8     9    1
     6     9    10    2
     7    10    11    1
     8    11    12    1
     9    12    13    2
    10    12    14    1
    11     4     5    2
    12     5     6    1
    13     6    15    1
    14    15    16   ar
    15    16    17   ar
    16    17    18   ar
    17    18    19    1
    18    18    20   ar
    19    20    21   ar
    20     6    22    1
    21    22    23   ar
    22    23    24   ar
    23    24    25   ar
    24    25    26    1
    25    25    27   ar
    26    27    28   ar
    27     6     2    1
    28    21    15   ar
    29    28    22   ar
    30    14     8    2
    31     3     7    1
@<TRIPOS>MOLECULE
*****
 28 31 0 0 0
SMALL
GASTEIGER

@<TRIPOS>ATOM
      1 C         137.9018  141.8876  164.0597 C.3     1  UNL1        0.0559
      2 C         139.1475  141.6367  164.8568 C.3     1  UNL1        0.2097
      3 N         139.4210  142.1344  166.2452 N.pl3   1  UNL1       -0.2171
      4 C         140.7809  141.6494  166.6520 C.2     1  UNL1        0.3316
      5 N         141.3479  140.8520  165.5150 N.2     1  UNL1       -0.0602
      6 C         140.3384  140.8441  164.4056 C.3     1  UNL1        0.2515
      7 H         138.8145  142.6830  166.7932 H       1  UNL1        0.2923
      8 C         141.4554  141.9152  167.9652 C.2     1  UNL1        0.1544
      9 C         142.9329  142.1698  168.0115 C.2     1  UNL1        0.0200
     10 C         143.6073  142.4356  169.3247 C.2     1  UNL1       -0.0149
     11 C         142.8043  142.4468  170.5915 C.3     1  UNL1        0.1132
     12 C         141.3268  142.1921  170.5452 C.2     1  UNL1        0.2502
     13 O         140.5237  142.2033  171.8121 O.2     1  UNL1       -0.2726
     14 N         140.6524  141.9264  169.2321 N.am    1  UNL1       -0.1714
     15 C         139.5431  140.6627  163.1468 C.ar    1  UNL1        0.0297
     16 C         138.5434  139.5491  163.0453 C.ar    1  UNL1        0.0025
     17 C         137.7480  139.3675  161.7865 C.ar    1  UNL1        0.0295
     18 C         137.9524  140.2997  160.6293 C.ar    1  UNL1        0.1401
     19 F         137.1571  140.1182  159.3705 F       1  UNL1       -0.2042
     20 C         138.9522  141.4134  160.7307 C.ar    1  UNL1        0.0295
     21 C         139.7475  141.5949  161.9895 C.ar    1  UNL1        0.0025
     22 C         141.3630  140.0136  163.6911 C.ar    1  UNL1        0.0488
     23 C         141.1747  138.5304  163.5706 C.ar    1  UNL1        0.0057
     24 C         142.1993  137.6999  162.8561 C.ar    1  UNL1        0.0495
     25 C         143.4122  138.3526  162.2622 C.ar    1  UNL1        0.2223
     26 F         144.4368  137.5220  161.5478 F       1  UNL1       -0.1832
     27 N         143.6005  139.8358  162.3828 N.ar    1  UNL1       -0.2166
     28 C         142.5759  140.6664  163.0973 C.ar    1  UNL1        0.1014
@<TRIPOS>BOND
     1     2     1    1
     2     2     3    1
     3     3     4    1
     4     4     8    1
     5     8     9    1
     6     9    10    2
     7    10    11    1
     8    11    12    1
     9    12    13    2
    10    12    14    1
    11     4     5    2
    12     5     6    1
    13     6    15    1
    14    15    16   ar
    15    16    17   ar
    16    17    18   ar
    17    18    19    1
    18    18    20   ar
    19    20    21   ar
    20     6    22    1
    21    22    23   ar
    22    23    24   ar
    23    24    25   ar
    24    25    26    1
    25    25    27   ar
    26    27    28   ar
    27     6     2    1
    28    21    15   ar
    29    28    22   ar
    30    14     8    2
    31     3     7    1
@<TRIPOS>MOLECULE
*****
 28 31 0 0 0
SMALL
GASTEIGER

@<TRIPOS>ATOM
      1 C         141.7243  145.2687  163.6021 C.3     1  UNL1        0.0559
      2 C         141.2950  144.8390  162.2306 C.3     1  UNL1        0.2097
      3 N         141.5957  145.5555  160.9477 N.pl3   1  UNL1       -0.2171
      4 C         140.9762  144.7766  159.8254 C.2     1  UNL1        0.3316
      5 N         140.2925  143.5786  160.4148 N.2     1  UNL1       -0.0602
      6 C         140.4895  143.6171  161.9013 C.3     1  UNL1        0.2515
      7 H         142.1096  146.3905  160.8579 H       1  UNL1        0.2923
      8 C         141.0307  145.1331  158.3694 C.2     1  UNL1        0.1544
      9 C         142.1140  144.5684  157.4990 C.2     1  UNL1        0.0200
     10 C         142.1685  144.9250  156.0431 C.2     1  UNL1       -0.0149
     11 C         141.1397  145.8462  155.4574 C.3     1  UNL1        0.1132
     12 C         140.0565  146.4109  156.3278 C.2     1  UNL1        0.2502
     13 O         139.0277  147.3322  155.7422 O.2     1  UNL1       -0.2726
     14 N         140.0019  146.0544  157.7837 N.am    1  UNL1       -0.1714
     15 C         140.5195  143.3903  163.3837 C.ar    1  UNL1        0.0297
     16 C         141.6234  142.5804  163.9963 C.ar    1  UNL1        0.0025
     17 C         141.6534  142.3536  165.4789 C.ar    1  UNL1        0.0295
     18 C         140.5795  142.9367  166.3486 C.ar    1  UNL1        0.1401
     19 F         140.6095  142.7099  167.8311 F       1  UNL1       -0.2042
     20 C         139.4755  143.7466  165.7360 C.ar    1  UNL1        0.0295
     21 C         139.4455  143.9734  164.2536 C.ar    1  UNL1        0.0025
     22 C         139.6903  142.3479  161.8819 C.ar    1  UNL1        0.0488
     23 C         140.3882  141.0236  161.7861 C.ar    1  UNL1        0.0057
     24 C         139.5890  139.7544  161.7667 C.ar    1  UNL1        0.0495
     25 C         138.0920  139.8095  161.8431 C.ar    1  UNL1        0.2223
     26 F         137.2928  138.5402  161.8237 F       1  UNL1       -0.1832
     27 N         137.3942  141.1337  161.9389 N.ar    1  UNL1       -0.2166
     28 C         138.1933  142.4030  161.9583 C.ar    1  UNL1        0.1014
@<TRIPOS>BOND
     1     2     1    1
     2     2     3    1
     3     3     4    1
     4     4     8    1
     5     8     9    1
     6     9    10    2
     7    10    11    1
     8    11    12    1
     9    12    13    2
    10    12    14    1
    11     4     5    2
    12     5     6    1
    13     6    15    1
    14    15    16   ar
    15    16    17   ar
    16    17    18   ar
    17    18    19    1
    18    18    20   ar
    19    20    21   ar
    20     6    22    1
    21    22    23   ar
    22    23    24   ar
    23    24    25   ar
    24    25    26    1
    25    25    27   ar
    26    27    28   ar
    27     6     2    1
    28    21    15   ar
    29    28    22   ar
    30    14     8    2
    31     3     7    1
@<TRIPOS>MOLECULE
*****
 28 31 0 0 0
SMALL
GASTEIGER

@<TRIPOS>ATOM
      1 C         144.1279  141.2146  163.8237 C.3     1  UNL1        0.0559
      2 C         142.9069  141.0967  164.6869 C.3     1  UNL1        0.2097
      3 N         142.7862  141.5528  166.1108 N.pl3   1  UNL1       -0.2171
      4 C         141.3968  141.2400  166.5816 C.2     1  UNL1        0.3316
      5 N         140.6587  140.5906  165.4487 N.2     1  UNL1       -0.0602
      6 C         141.5919  140.5020  164.2777 C.3     1  UNL1        0.2515
      7 H         143.4946  141.9821  166.6429 H       1  UNL1        0.2923
      8 C         140.8428  141.5263  167.9459 C.2     1  UNL1        0.1544
      9 C         140.7767  142.9385  168.4473 C.2     1  UNL1        0.0200
     10 C         140.2227  143.2248  169.8114 C.2     1  UNL1       -0.0149
     11 C         139.7348  142.0989  170.6743 C.3     1  UNL1        0.1132
     12 C         139.8009  140.6868  170.1729 C.2     1  UNL1        0.2502
     13 O         139.3130  139.5609  171.0357 O.2     1  UNL1       -0.2726
     14 N         140.3549  140.4005  168.8087 N.am    1  UNL1       -0.1714
     15 C         142.2804  140.2794  162.9638 C.ar    1  UNL1        0.0297
     16 C         142.1616  141.3014  161.8723 C.ar    1  UNL1        0.0025
     17 C         142.8501  141.0788  160.5583 C.ar    1  UNL1        0.0295
     18 C         143.6573  139.8343  160.3358 C.ar    1  UNL1        0.1401
     19 F         144.3457  139.6117  159.0219 F       1  UNL1       -0.2042
     20 C         143.7760  138.8122  161.4274 C.ar    1  UNL1        0.0295
     21 C         143.0876  139.0348  162.7413 C.ar    1  UNL1        0.0025
     22 C         140.4210  139.8608  163.5939 C.ar    1  UNL1        0.0488
     23 C         140.3181  138.3658  163.5267 C.ar    1  UNL1        0.0057
     24 C         139.1471  137.7246  162.8428 C.ar    1  UNL1        0.0495
     25 C         138.0791  138.5783  162.2261 C.ar    1  UNL1        0.2223
     26 F         136.9081  137.9370  161.5422 F       1  UNL1       -0.1832
     27 N         138.1819  140.0732  162.2933 N.ar    1  UNL1       -0.2166
     28 C         139.3529  140.7145  162.9772 C.ar    1  UNL1        0.1014
@<TRIPOS>BOND
     1     2     1    1
     2     2     3    1
     3     3     4    1
     4     4     8    1
     5     8     9    1
     6     9    10    2
     7    10    11    1
     8    11    12    1
     9    12    13    2
    10    12    14    1
    11     4     5    2
    12     5     6    1
    13     6    15    1
    14    15    16   ar
    15    16    17   ar
    16    17    18   ar
    17    18    19    1
    18    18    20   ar
    19    20    21   ar
    20     6    22    1
    21    22    23   ar
    22    23    24   ar
    23    24    25   ar
    24    25    26    1
    25    25    27   ar
    26    27    28   ar
    27     6     2    1
    28    21    15   ar
    29    28    22   ar
    30    14     8    2
    31     3     7    1
