@<TRIPOS>MOLECULE
*****
 31 33 0 0 0
SMALL
GASTEIGER

@<TRIPOS>ATOM
      1 C         138.8300  140.4355  156.1550 C.3     1  UNL1        0.0314
      2 C         139.4276  139.4013  157.0623 C.3     1  UNL1        0.1517
      3 C         139.0349  139.3561  158.5094 C.ar    1  UNL1        0.2544
      4 N         139.8109  138.7012  159.6134 N.ar    1  UNL1       -0.1894
      5 C         139.0530  138.8982  160.8928 C.ar    1  UNL1        0.2034
      6 N         137.8085  139.6749  160.5793 N.ar    1  UNL1       -0.0560
      7 O         137.7973  139.9578  159.1063 O.2     1  UNL1       -0.3353
      8 C         139.4668  138.4052  162.2477 C.ar    1  UNL1        0.0421
      9 C         140.7587  137.6611  162.4127 C.ar    1  UNL1        0.0238
     10 C         141.1725  137.1681  163.7675 C.ar    1  UNL1        0.0989
     11 N         140.2943  137.4192  164.9574 N.ar    1  UNL1       -0.2399
     12 C         139.0024  138.1633  164.7924 C.ar    1  UNL1        0.1527
     13 C         138.5886  138.6563  163.4376 C.ar    1  UNL1        0.0263
     14 C         138.1242  138.4143  165.9823 C.3     1  UNL1        0.4348
     15 F         137.2461  138.6654  167.1722 F       1  UNL1       -0.1644
     16 F         138.0385  136.9375  166.2307 F       1  UNL1       -0.1644
     17 F         138.2100  139.8912  165.7339 F       1  UNL1       -0.1644
     18 N         140.4178  138.4122  156.5226 N.am    1  UNL1       -0.2934
     19 C         139.9374  137.1532  155.8641 C.2     1  UNL1        0.2636
     20 O         138.4666  136.8831  155.7452 O.2     1  UNL1       -0.2685
     21 H         141.3830  138.5895  156.6007 H       1  UNL1        0.1502
     22 C         140.9276  136.1641  155.3244 C.ar    1  UNL1        0.1326
     23 C         141.8917  135.3498  156.1351 C.ar    1  UNL1        0.0482
     24 C         142.6874  134.4982  155.1910 C.ar    1  UNL1        0.1738
     25 N         142.2152  134.7861  153.7968 N.ar    1  UNL1       -0.1651
     26 N         141.1275  135.8157  153.8791 N.ar    1  UNL1       -0.2445
     27 C         140.3724  136.3952  152.7198 C.3     1  UNL1        0.1539
     28 C         143.7661  133.5287  155.5739 C.3     1  UNL1        0.4365
     29 F         144.8448  132.5593  155.9569 F       1  UNL1       -0.1643
     30 F         144.1625  134.4199  156.7135 F       1  UNL1       -0.1643
     31 F         143.3697  132.6375  154.4344 F       1  UNL1       -0.1643
@<TRIPOS>BOND
     1     2     1    1
     2     2    18    1
     3    18    19   am
     4    19    20    2
     5    19    22    1
     6    22    23   ar
     7    23    24   ar
     8    24    28    1
     9    28    29    1
    10    28    30    1
    11    28    31    1
    12    24    25   ar
    13    25    26   ar
    14    26    27    1
    15     2     3    1
    16     3     4   ar
    17     4     5   ar
    18     5     8    1
    19     8     9   ar
    20     9    10   ar
    21    10    11   ar
    22    11    12   ar
    23    12    14    1
    24    14    15    1
    25    14    16    1
    26    14    17    1
    27    12    13   ar
    28     5     6   ar
    29     6     7   ar
    30    26    22   ar
    31     7     3   ar
    32    13     8   ar
    33    18    21    1
@<TRIPOS>MOLECULE
*****
 31 33 0 0 0
SMALL
GASTEIGER

@<TRIPOS>ATOM
      1 C         143.8165  144.7403  163.3097 C.3     1  UNL1        0.0314
      2 C         142.3988  144.6836  162.8231 C.3     1  UNL1        0.1517
      3 C         141.3165  144.1676  163.7244 C.ar    1  UNL1        0.2544
      4 N         141.2971  142.8297  164.4024 N.ar    1  UNL1       -0.1894
      5 C         140.0323  142.7340  165.2030 C.ar    1  UNL1        0.2034
      6 N         139.2699  144.0128  165.0198 N.ar    1  UNL1       -0.0560
      7 O         140.0636  144.8988  164.1060 O.2     1  UNL1       -0.3353
      8 C         139.6048  141.5649  166.0399 C.ar    1  UNL1        0.0421
      9 C         138.7856  140.4660  165.4306 C.ar    1  UNL1        0.0238
     10 C         138.3581  139.2969  166.2675 C.ar    1  UNL1        0.0989
     11 N         138.7499  139.2267  167.7137 N.ar    1  UNL1       -0.2399
     12 C         139.5691  140.3255  168.3231 C.ar    1  UNL1        0.1527
     13 C         139.9966  141.4946  167.4861 C.ar    1  UNL1        0.0263
     14 C         139.9609  140.2553  169.7693 C.3     1  UNL1        0.4348
     15 F         140.3527  140.1851  171.2155 F       1  UNL1       -0.1644
     16 F         138.8381  141.1865  170.1187 F       1  UNL1       -0.1644
     17 F         141.0838  139.3241  169.4199 F       1  UNL1       -0.1644
     18 N         142.0633  145.1430  161.4351 N.am    1  UNL1       -0.2934
     19 C         141.8220  144.1364  160.3497 C.2     1  UNL1        0.2636
     20 O         141.9161  142.6702  160.6522 O.2     1  UNL1       -0.2685
     21 H         142.0016  146.1053  161.2366 H       1  UNL1        0.1502
     22 C         141.4865  144.5958  158.9617 C.ar    1  UNL1        0.1326
     23 C         140.3766  145.5327  158.5872 C.ar    1  UNL1        0.0482
     24 C         140.4062  145.7149  157.0987 C.ar    1  UNL1        0.1738
     25 N         141.5344  144.8906  156.5531 N.ar    1  UNL1       -0.1651
     26 N         142.2021  144.1990  157.7045 N.ar    1  UNL1       -0.2445
     27 C         143.3788  143.2731  157.6146 C.3     1  UNL1        0.1539
     28 C         139.4716  146.5711  156.2965 C.3     1  UNL1        0.4365
     29 F         138.5371  147.4273  155.4943 F       1  UNL1       -0.1643
     30 F         139.2532  147.4518  157.4909 F       1  UNL1       -0.1643
     31 F         139.6901  145.6904  155.1021 F       1  UNL1       -0.1643
@<TRIPOS>BOND
     1     2     1    1
     2     2    18    1
     3    18    19   am
     4    19    20    2
     5    19    22    1
     6    22    23   ar
     7    23    24   ar
     8    24    28    1
     9    28    29    1
    10    28    30    1
    11    28    31    1
    12    24    25   ar
    13    25    26   ar
    14    26    27    1
    15     2     3    1
    16     3     4   ar
    17     4     5   ar
    18     5     8    1
    19     8     9   ar
    20     9    10   ar
    21    10    11   ar
    22    11    12   ar
    23    12    14    1
    24    14    15    1
    25    14    16    1
    26    14    17    1
    27    12    13   ar
    28     5     6   ar
    29     6     7   ar
    30    26    22   ar
    31     7     3   ar
    32    13     8   ar
    33    18    21    1
@<TRIPOS>MOLECULE
*****
 31 33 0 0 0
SMALL
GASTEIGER

@<TRIPOS>ATOM
      1 C         143.3834  145.1073  163.9209 C.3     1  UNL1        0.0314
      2 C         142.2407  144.2941  163.3890 C.3     1  UNL1        0.1517
      3 C         141.5609  144.6994  162.1147 C.ar    1  UNL1        0.2544
      4 N         142.1416  144.5994  160.7353 N.ar    1  UNL1       -0.1894
      5 C         141.1207  145.1140  159.7642 C.ar    1  UNL1        0.2034
      6 N         139.9091  145.5320  160.5436 N.ar    1  UNL1       -0.0560
      7 O         140.1811  145.2758  161.9962 O.2     1  UNL1       -0.3353
      8 C         141.2828  145.1961  158.2752 C.ar    1  UNL1        0.0421
      9 C         142.2744  144.3120  157.5789 C.ar    1  UNL1        0.0238
     10 C         142.4365  144.3942  156.0900 C.ar    1  UNL1        0.0989
     11 N         141.6071  145.3605  155.2974 N.ar    1  UNL1       -0.2399
     12 C         140.6155  146.2446  155.9938 C.ar    1  UNL1        0.1527
     13 C         140.4534  146.1625  157.4827 C.ar    1  UNL1        0.0263
     14 C         139.7860  147.2110  155.2012 C.3     1  UNL1        0.4348
     15 F         138.9565  148.1773  154.4086 F       1  UNL1       -0.1644
     16 F         140.6249  146.9364  153.9884 F       1  UNL1       -0.1644
     17 F         138.9471  147.4856  156.4140 F       1  UNL1       -0.1644
     18 N         141.7779  143.0757  164.1313 N.am    1  UNL1       -0.2934
     19 C         140.5507  143.1423  164.9911 C.2     1  UNL1        0.2636
     20 O         139.7862  144.4277  165.1086 O.2     1  UNL1       -0.2685
     21 H         142.2796  142.2321  164.0542 H       1  UNL1        0.1502
     22 C         140.0878  141.9239  165.7334 C.ar    1  UNL1        0.1326
     23 C         139.4938  140.6905  165.1202 C.ar    1  UNL1        0.0482
     24 C         139.1765  139.7293  166.2271 C.ar    1  UNL1        0.1738
     25 N         139.5744  140.3684  167.5244 N.ar    1  UNL1       -0.1651
     26 N         140.1376  141.7248  167.2193 N.ar    1  UNL1       -0.2445
     27 C         140.6591  142.7092  168.2238 C.3     1  UNL1        0.1539
     28 C         138.5682  138.3678  166.0651 C.3     1  UNL1        0.4365
     29 F         137.9598  137.0063  165.9031 F       1  UNL1       -0.1643
     30 F         139.7578  137.9317  165.2622 F       1  UNL1       -0.1643
     31 F         137.3785  138.8039  166.8679 F       1  UNL1       -0.1643
@<TRIPOS>BOND
     1     2     1    1
     2     2    18    1
     3    18    19   am
     4    19    20    2
     5    19    22    1
     6    22    23   ar
     7    23    24   ar
     8    24    28    1
     9    28    29    1
    10    28    30    1
    11    28    31    1
    12    24    25   ar
    13    25    26   ar
    14    26    27    1
    15     2     3    1
    16     3     4   ar
    17     4     5   ar
    18     5     8    1
    19     8     9   ar
    20     9    10   ar
    21    10    11   ar
    22    11    12   ar
    23    12    14    1
    24    14    15    1
    25    14    16    1
    26    14    17    1
    27    12    13   ar
    28     5     6   ar
    29     6     7   ar
    30    26    22   ar
    31     7     3   ar
    32    13     8   ar
    33    18    21    1
@<TRIPOS>MOLECULE
*****
 31 33 0 0 0
SMALL
GASTEIGER

@<TRIPOS>ATOM
      1 C         139.6485  145.8526  162.2808 C.3     1  UNL1        0.0314
      2 C         140.4284  144.5824  162.1122 C.3     1  UNL1        0.1517
      3 C         141.2464  144.3633  160.8741 C.ar    1  UNL1        0.2544
      4 N         141.9116  143.0803  160.4725 N.ar    1  UNL1       -0.1894
      5 C         142.6191  143.3127  159.1704 C.ar    1  UNL1        0.2034
      6 N         142.3911  144.7394  158.7673 N.ar    1  UNL1       -0.0560
      7 O         141.5427  145.3887  159.8202 O.2     1  UNL1       -0.3353
      8 C         143.4149  142.2968  158.4057 C.ar    1  UNL1        0.0421
      9 C         142.8909  140.9006  158.2441 C.ar    1  UNL1        0.0238
     10 C         143.6867  139.8848  157.4794 C.ar    1  UNL1        0.0989
     11 N         145.0065  140.2651  156.8764 N.ar    1  UNL1       -0.2399
     12 C         145.5304  141.6613  157.0380 C.ar    1  UNL1        0.1527
     13 C         144.7346  142.6771  157.8027 C.ar    1  UNL1        0.0263
     14 C         146.8501  142.0416  156.4350 C.3     1  UNL1        0.4348
     15 F         148.1699  142.4220  155.8320 F       1  UNL1       -0.1644
     16 F         147.0664  143.0371  157.5361 F       1  UNL1       -0.1644
     17 F         146.6339  141.0462  155.3339 F       1  UNL1       -0.1644
     18 N         140.3904  143.5315  163.1818 N.am    1  UNL1       -0.2934
     19 C         139.1280  142.7610  163.4318 C.2     1  UNL1        0.2636
     20 O         137.9034  143.0416  162.6120 O.2     1  UNL1       -0.2685
     21 H         141.1941  143.3474  163.7198 H       1  UNL1        0.1502
     22 C         139.0900  141.7101  164.5013 C.ar    1  UNL1        0.1326
     23 C         138.5170  140.3308  164.3622 C.ar    1  UNL1        0.0482
     24 C         138.6911  139.6222  165.6727 C.ar    1  UNL1        0.1738
     25 N         139.3717  140.5633  166.6218 N.ar    1  UNL1       -0.1651
     26 N         139.6182  141.8538  165.8979 N.ar    1  UNL1       -0.2445
     27 C         140.2773  143.0737  166.4701 C.3     1  UNL1        0.1539
     28 C         138.2603  138.2187  165.9801 C.3     1  UNL1        0.4365
     29 F         137.8295  136.8151  166.2875 F       1  UNL1       -0.1643
     30 F         137.3127  138.7375  167.0207 F       1  UNL1       -0.1643
     31 F         139.2079  137.6998  164.9395 F       1  UNL1       -0.1643
@<TRIPOS>BOND
     1     2     1    1
     2     2    18    1
     3    18    19   am
     4    19    20    2
     5    19    22    1
     6    22    23   ar
     7    23    24   ar
     8    24    28    1
     9    28    29    1
    10    28    30    1
    11    28    31    1
    12    24    25   ar
    13    25    26   ar
    14    26    27    1
    15     2     3    1
    16     3     4   ar
    17     4     5   ar
    18     5     8    1
    19     8     9   ar
    20     9    10   ar
    21    10    11   ar
    22    11    12   ar
    23    12    14    1
    24    14    15    1
    25    14    16    1
    26    14    17    1
    27    12    13   ar
    28     5     6   ar
    29     6     7   ar
    30    26    22   ar
    31     7     3   ar
    32    13     8   ar
    33    18    21    1
@<TRIPOS>MOLECULE
*****
 31 33 0 0 0
SMALL
GASTEIGER

@<TRIPOS>ATOM
      1 C         140.0915  145.6576  161.6536 C.3     1  UNL1        0.0314
      2 C         139.6010  144.2518  161.8358 C.3     1  UNL1        0.1517
      3 C         139.9994  143.4702  163.0525 C.ar    1  UNL1        0.2544
      4 N         139.1156  142.5431  163.8333 N.ar    1  UNL1       -0.1894
      5 C         139.9215  141.9784  164.9654 C.ar    1  UNL1        0.2034
      6 N         141.3033  142.5565  164.8843 N.ar    1  UNL1       -0.0560
      7 O         141.3514  143.4785  163.7021 O.2     1  UNL1       -0.3353
      8 C         139.4316  141.0063  165.9974 C.ar    1  UNL1        0.0421
      9 C         138.4754  139.9180  165.6085 C.ar    1  UNL1        0.0238
     10 C         137.9856  138.9459  166.6406 C.ar    1  UNL1        0.0989
     11 N         138.4519  139.0622  168.0615 N.ar    1  UNL1       -0.2399
     12 C         139.4081  140.1505  168.4504 C.ar    1  UNL1        0.1527
     13 C         139.8979  141.1225  167.4184 C.ar    1  UNL1        0.0263
     14 C         139.8744  140.2667  169.8713 C.3     1  UNL1        0.4348
     15 F         140.3408  140.3829  171.2922 F       1  UNL1       -0.1644
     16 F         141.0442  139.3810  169.5598 F       1  UNL1       -0.1644
     17 F         138.7046  141.1524  170.1828 F       1  UNL1       -0.1644
     18 N         138.7121  143.6276  160.8012 N.am    1  UNL1       -0.2934
     19 C         139.3063  142.7868  159.7105 C.2     1  UNL1        0.2636
     20 O         140.7896  142.5701  159.6543 O.2     1  UNL1       -0.2685
     21 H         137.7386  143.7699  160.8381 H       1  UNL1        0.1502
     22 C         138.4174  142.1627  158.6759 C.ar    1  UNL1        0.1326
     23 C         137.8617  142.8469  157.4623 C.ar    1  UNL1        0.0482
     24 C         137.0291  141.8518  156.7097 C.ar    1  UNL1        0.1738
     25 N         137.0701  140.5526  157.4581 N.ar    1  UNL1       -0.1651
     26 N         137.9282  140.7447  158.6734 N.ar    1  UNL1       -0.2445
     27 C         138.2419  139.7019  159.7050 C.3     1  UNL1        0.1539
     28 C         136.2859  142.1106  155.4327 C.3     1  UNL1        0.4365
     29 F         135.5426  142.3693  154.1557 F       1  UNL1       -0.1643
     30 F         137.4364  142.9309  154.9293 F       1  UNL1       -0.1643
     31 F         135.1354  141.2903  155.9361 F       1  UNL1       -0.1643
@<TRIPOS>BOND
     1     2     1    1
     2     2    18    1
     3    18    19   am
     4    19    20    2
     5    19    22    1
     6    22    23   ar
     7    23    24   ar
     8    24    28    1
     9    28    29    1
    10    28    30    1
    11    28    31    1
    12    24    25   ar
    13    25    26   ar
    14    26    27    1
    15     2     3    1
    16     3     4   ar
    17     4     5   ar
    18     5     8    1
    19     8     9   ar
    20     9    10   ar
    21    10    11   ar
    22    11    12   ar
    23    12    14    1
    24    14    15    1
    25    14    16    1
    26    14    17    1
    27    12    13   ar
    28     5     6   ar
    29     6     7   ar
    30    26    22   ar
    31     7     3   ar
    32    13     8   ar
    33    18    21    1
@<TRIPOS>MOLECULE
*****
 31 33 0 0 0
SMALL
GASTEIGER

@<TRIPOS>ATOM
      1 C         141.4247  145.3400  163.5316 C.3     1  UNL1        0.0314
      2 C         140.9800  144.3002  162.5461 C.3     1  UNL1        0.1517
      3 C         141.1854  144.5228  161.0770 C.ar    1  UNL1        0.2544
      4 N         140.1282  144.9173  160.0887 N.ar    1  UNL1       -0.1894
      5 C         140.7735  145.0282  158.7392 C.ar    1  UNL1        0.2034
      6 N         142.2295  144.7022  158.8934 N.ar    1  UNL1       -0.0560
      7 O         142.4842  144.3899  160.3382 O.2     1  UNL1       -0.3353
      8 C         140.0838  145.3998  157.4600 C.ar    1  UNL1        0.0421
      9 C         139.7111  144.3345  156.4720 C.ar    1  UNL1        0.0238
     10 C         139.0215  144.7062  155.1928 C.ar    1  UNL1        0.0989
     11 N         138.7046  146.1431  154.9017 N.ar    1  UNL1       -0.2399
     12 C         139.0773  147.2084  155.8897 C.ar    1  UNL1        0.1527
     13 C         139.7670  146.8368  157.1688 C.ar    1  UNL1        0.0263
     14 C         138.7605  148.6454  155.5985 C.3     1  UNL1        0.4348
     15 F         138.4436  150.0823  155.3074 F       1  UNL1       -0.1644
     16 F         139.1570  148.4426  154.1662 F       1  UNL1       -0.1644
     17 F         138.3639  148.8481  157.0309 F       1  UNL1       -0.1644
     18 N         140.3300  143.0379  163.0298 N.am    1  UNL1       -0.2934
     19 C         141.1706  141.8402  163.3598 C.2     1  UNL1        0.2636
     20 O         142.6613  141.9049  163.2059 O.2     1  UNL1       -0.2685
     21 H         139.3516  142.9955  163.1308 H       1  UNL1        0.1502
     22 C         140.5205  140.5779  163.8435 C.ar    1  UNL1        0.1326
     23 C         139.6210  140.4508  165.0371 C.ar    1  UNL1        0.0482
     24 C         139.2005  139.0154  165.1498 C.ar    1  UNL1        0.1738
     25 N         139.8400  138.2554  164.0259 N.ar    1  UNL1       -0.1651
     26 N         140.6559  139.2210  163.2185 N.ar    1  UNL1       -0.2445
     27 C         141.4650  138.8882  162.0001 C.3     1  UNL1        0.1539
     28 C         138.2987  138.4409  166.2018 C.3     1  UNL1        0.4365
     29 F         137.3969  137.8664  167.2538 F       1  UNL1       -0.1643
     30 F         138.3041  139.7555  166.9242 F       1  UNL1       -0.1643
     31 F         138.2933  137.1264  165.4793 F       1  UNL1       -0.1643
@<TRIPOS>BOND
     1     2     1    1
     2     2    18    1
     3    18    19   am
     4    19    20    2
     5    19    22    1
     6    22    23   ar
     7    23    24   ar
     8    24    28    1
     9    28    29    1
    10    28    30    1
    11    28    31    1
    12    24    25   ar
    13    25    26   ar
    14    26    27    1
    15     2     3    1
    16     3     4   ar
    17     4     5   ar
    18     5     8    1
    19     8     9   ar
    20     9    10   ar
    21    10    11   ar
    22    11    12   ar
    23    12    14    1
    24    14    15    1
    25    14    16    1
    26    14    17    1
    27    12    13   ar
    28     5     6   ar
    29     6     7   ar
    30    26    22   ar
    31     7     3   ar
    32    13     8   ar
    33    18    21    1
@<TRIPOS>MOLECULE
*****
 31 33 0 0 0
SMALL
GASTEIGER

@<TRIPOS>ATOM
      1 C         142.9653  140.9384  156.7957 C.3     1  UNL1        0.0314
      2 C         142.6910  139.6543  157.5207 C.3     1  UNL1        0.1517
      3 C         143.1501  138.3508  156.9374 C.ar    1  UNL1        0.2544
      4 N         142.5404  137.0052  157.1973 N.ar    1  UNL1       -0.1894
      5 C         143.3130  135.9869  156.4124 C.ar    1  UNL1        0.2034
      6 N         144.4002  136.7032  155.6673 N.ar    1  UNL1       -0.0560
      7 O         144.2995  138.1642  155.9918 O.2     1  UNL1       -0.3353
      8 C         143.0455  134.5113  156.3784 C.ar    1  UNL1        0.0421
      9 C         141.8801  133.9781  155.5989 C.ar    1  UNL1        0.0238
     10 C         141.6126  132.5026  155.5650 C.ar    1  UNL1        0.0989
     11 N         142.5104  131.5602  156.3105 N.ar    1  UNL1       -0.2399
     12 C         143.6758  132.0934  157.0900 C.ar    1  UNL1        0.1527
     13 C         143.9433  133.5689  157.1239 C.ar    1  UNL1        0.0263
     14 C         144.5737  131.1510  157.8355 C.3     1  UNL1        0.4348
     15 F         145.4715  130.2086  158.5810 F       1  UNL1       -0.1644
     16 F         145.6004  132.2361  157.9706 F       1  UNL1       -0.1644
     17 F         143.5469  130.0659  157.7004 F       1  UNL1       -0.1644
     18 N         141.9575  139.6736  158.8290 N.am    1  UNL1       -0.2934
     19 C         142.6667  139.2855  160.0923 C.2     1  UNL1        0.2636
     20 O         144.1097  138.8779  160.0474 O.2     1  UNL1       -0.2685
     21 H         141.0105  139.9411  158.8584 H       1  UNL1        0.1502
     22 C         141.9332  139.3048  161.4006 C.ar    1  UNL1        0.1326
     23 C         141.1563  138.1665  161.9927 C.ar    1  UNL1        0.0482
     24 C         140.5908  138.6240  163.3045 C.ar    1  UNL1        0.1738
     25 N         141.0182  140.0450  163.5232 N.ar    1  UNL1       -0.1651
     26 N         141.8479  140.4658  162.3465 N.ar    1  UNL1       -0.2445
     27 C         142.4810  141.8114  162.1502 C.3     1  UNL1        0.1539
     28 C         139.7462  137.8043  164.2344 C.3     1  UNL1        0.4365
     29 F         138.9015  136.9846  165.1642 F       1  UNL1       -0.1643
     30 F         138.9699  137.2768  163.0643 F       1  UNL1       -0.1643
     31 F         140.5225  138.3318  165.4044 F       1  UNL1       -0.1643
@<TRIPOS>BOND
     1     2     1    1
     2     2    18    1
     3    18    19   am
     4    19    20    2
     5    19    22    1
     6    22    23   ar
     7    23    24   ar
     8    24    28    1
     9    28    29    1
    10    28    30    1
    11    28    31    1
    12    24    25   ar
    13    25    26   ar
    14    26    27    1
    15     2     3    1
    16     3     4   ar
    17     4     5   ar
    18     5     8    1
    19     8     9   ar
    20     9    10   ar
    21    10    11   ar
    22    11    12   ar
    23    12    14    1
    24    14    15    1
    25    14    16    1
    26    14    17    1
    27    12    13   ar
    28     5     6   ar
    29     6     7   ar
    30    26    22   ar
    31     7     3   ar
    32    13     8   ar
    33    18    21    1
@<TRIPOS>MOLECULE
*****
 31 33 0 0 0
SMALL
GASTEIGER

@<TRIPOS>ATOM
      1 C         143.3664  145.1188  163.8367 C.3     1  UNL1        0.0314
      2 C         141.9464  144.6721  163.6528 C.3     1  UNL1        0.1517
      3 C         141.1943  145.0550  162.4127 C.ar    1  UNL1        0.2544
      4 N         141.5266  144.6294  161.0133 N.ar    1  UNL1       -0.1894
      5 C         140.5155  145.2420  160.0900 C.ar    1  UNL1        0.2034
      6 N         139.5583  146.0462  160.9189 N.ar    1  UNL1       -0.0560
      7 O         139.9777  145.9307  162.3544 O.2     1  UNL1       -0.3353
      8 C         140.4697  145.0791  158.5996 C.ar    1  UNL1        0.0421
      9 C         140.8434  143.7667  157.9767 C.ar    1  UNL1        0.0238
     10 C         140.7975  143.6039  156.4863 C.ar    1  UNL1        0.0989
     11 N         140.3780  144.7534  155.6188 N.ar    1  UNL1       -0.2399
     12 C         140.0043  146.0657  156.2416 C.ar    1  UNL1        0.1527
     13 C         140.0501  146.2286  157.7320 C.ar    1  UNL1        0.0263
     14 C         139.5847  147.2152  155.3741 C.3     1  UNL1        0.4348
     15 F         139.1651  148.3647  154.5065 F       1  UNL1       -0.1644
     16 F         138.7404  147.7509  156.4922 F       1  UNL1       -0.1644
     17 F         140.4290  146.6795  154.2559 F       1  UNL1       -0.1644
     18 N         141.2784  143.8425  164.7090 N.am    1  UNL1       -0.2934
     19 C         141.3084  142.3457  164.6175 C.2     1  UNL1        0.2636
     20 O         142.0064  141.6784  163.4696 O.2     1  UNL1       -0.2685
     21 H         140.8203  144.2805  165.4624 H       1  UNL1        0.1502
     22 C         140.6404  141.5161  165.6737 C.ar    1  UNL1        0.1326
     23 C         141.1005  141.3581  167.0926 C.ar    1  UNL1        0.0482
     24 C         140.1396  140.4432  167.7922 C.ar    1  UNL1        0.1738
     25 N         139.0856  140.0358  166.8058 N.ar    1  UNL1       -0.1651
     26 N         139.3952  140.6988  165.4964 N.ar    1  UNL1       -0.2445
     27 C         138.5992  140.5677  164.2318 C.3     1  UNL1        0.1539
     28 C         140.2187  140.0115  169.2266 C.3     1  UNL1        0.4365
     29 F         140.2978  139.5798  170.6610 F       1  UNL1       -0.1643
     30 F         141.6214  139.5289  169.0040 F       1  UNL1       -0.1643
     31 F         138.8160  140.4941  169.4492 F       1  UNL1       -0.1643
@<TRIPOS>BOND
     1     2     1    1
     2     2    18    1
     3    18    19   am
     4    19    20    2
     5    19    22    1
     6    22    23   ar
     7    23    24   ar
     8    24    28    1
     9    28    29    1
    10    28    30    1
    11    28    31    1
    12    24    25   ar
    13    25    26   ar
    14    26    27    1
    15     2     3    1
    16     3     4   ar
    17     4     5   ar
    18     5     8    1
    19     8     9   ar
    20     9    10   ar
    21    10    11   ar
    22    11    12   ar
    23    12    14    1
    24    14    15    1
    25    14    16    1
    26    14    17    1
    27    12    13   ar
    28     5     6   ar
    29     6     7   ar
    30    26    22   ar
    31     7     3   ar
    32    13     8   ar
    33    18    21    1
@<TRIPOS>MOLECULE
*****
 31 33 0 0 0
SMALL
GASTEIGER

@<TRIPOS>ATOM
      1 C         139.9820  145.7909  162.2035 C.3     1  UNL1        0.0314
      2 C         141.1113  145.2351  161.3876 C.3     1  UNL1        0.1517
      3 C         142.0444  144.2257  161.9880 C.ar    1  UNL1        0.2544
      4 N         141.6461  142.9335  162.6373 N.ar    1  UNL1       -0.1894
      5 C         142.8951  142.2405  163.0951 C.ar    1  UNL1        0.2034
      6 N         144.0654  143.1043  162.7287 N.ar    1  UNL1       -0.0560
      7 O         143.5397  144.3313  162.0445 O.2     1  UNL1       -0.3353
      8 C         142.9622  140.9160  163.7962 C.ar    1  UNL1        0.0421
      9 C         144.2779  140.3981  164.2967 C.ar    1  UNL1        0.0238
     10 C         144.3449  139.0738  164.9977 C.ar    1  UNL1        0.0989
     11 N         143.0962  138.2673  165.1983 N.ar    1  UNL1       -0.2399
     12 C         141.7804  138.7852  164.6978 C.ar    1  UNL1        0.1527
     13 C         141.7134  140.1095  163.9967 C.ar    1  UNL1        0.0263
     14 C         140.5317  137.9787  164.8983 C.3     1  UNL1        0.4348
     15 F         139.2829  137.1722  165.0989 F       1  UNL1       -0.1644
     16 F         141.3106  136.7167  164.6732 F       1  UNL1       -0.1644
     17 F         139.7528  139.2407  165.1234 F       1  UNL1       -0.1644
     18 N         141.3075  145.6887  159.9714 N.am    1  UNL1       -0.2934
     19 C         140.4836  145.0891  158.8708 C.2     1  UNL1        0.2636
     20 O         139.4633  144.0358  159.1864 O.2     1  UNL1       -0.2685
     21 H         141.9772  146.3800  159.7643 H       1  UNL1        0.1502
     22 C         140.6798  145.5427  157.4545 C.ar    1  UNL1        0.1326
     23 C         139.9385  146.6552  156.7743 C.ar    1  UNL1        0.0482
     24 C         140.4523  146.7635  155.3693 C.ar    1  UNL1        0.1738
     25 N         141.5112  145.7180  155.1811 N.ar    1  UNL1       -0.1651
     26 N         141.6519  144.9635  156.4698 N.ar    1  UNL1       -0.2445
     27 C         142.5984  143.8289  156.7285 C.3     1  UNL1        0.1539
     28 C         139.9886  147.7451  154.3341 C.3     1  UNL1        0.4365
     29 F         139.5249  148.7266  153.2990 F       1  UNL1       -0.1643
     30 F         139.3827  148.5949  155.4114 F       1  UNL1       -0.1643
     31 F         140.5945  146.8952  153.2568 F       1  UNL1       -0.1643
@<TRIPOS>BOND
     1     2     1    1
     2     2    18    1
     3    18    19   am
     4    19    20    2
     5    19    22    1
     6    22    23   ar
     7    23    24   ar
     8    24    28    1
     9    28    29    1
    10    28    30    1
    11    28    31    1
    12    24    25   ar
    13    25    26   ar
    14    26    27    1
    15     2     3    1
    16     3     4   ar
    17     4     5   ar
    18     5     8    1
    19     8     9   ar
    20     9    10   ar
    21    10    11   ar
    22    11    12   ar
    23    12    14    1
    24    14    15    1
    25    14    16    1
    26    14    17    1
    27    12    13   ar
    28     5     6   ar
    29     6     7   ar
    30    26    22   ar
    31     7     3   ar
    32    13     8   ar
    33    18    21    1
