@<TRIPOS>MOLECULE
*****
 30 32 0 0 0
SMALL
GASTEIGER

@<TRIPOS>ATOM
      1 C         144.7353  141.5464  163.1230 C.ar    1  UNL1        0.1393
      2 C         144.6917  140.0495  163.0363 C.ar    1  UNL1        0.0370
      3 C         144.1547  139.2471  164.1842 C.ar    1  UNL1        0.0063
      4 C         143.6614  139.9415  165.4189 C.ar    1  UNL1        0.0392
      5 C         143.7050  141.4383  165.5056 C.ar    1  UNL1        0.0063
      6 C         144.2420  142.2408  164.3577 C.ar    1  UNL1        0.0370
      7 C         143.1244  139.1391  166.5668 C.2     1  UNL1        0.1961
      8 O         143.9605  138.0553  167.1803 O.2     1  UNL1       -0.2866
      9 C         141.7513  139.4204  167.1012 C.ar    1  UNL1        0.0460
     10 C         140.5472  139.1772  166.2405 C.ar    1  UNL1        0.0151
     11 C         139.1741  139.4585  166.7749 C.ar    1  UNL1        0.0578
     12 CL        137.9700  139.2153  165.9142 Cl      1  UNL1       -0.0822
     13 C         139.0052  139.9831  168.1701 C.ar    1  UNL1        0.0119
     14 C         140.2094  140.2264  169.0307 C.ar    1  UNL1        0.0077
     15 C         141.5825  139.9450  168.4963 C.ar    1  UNL1        0.0377
     16 BR        142.7867  140.1883  169.3570 Br      1  UNL1       -0.0489
     17 O         145.2723  142.3488  161.9751 O.3     1  UNL1       -0.4656
     18 C         144.3455  142.8312  160.8988 C.3     1  UNL1        0.2897
     19 N         141.9570  142.2151  161.7147 N.am    1  UNL1       -0.2808
     20 C         142.9445  143.2413  161.2438 C.2     1  UNL1        0.2707
     21 O         142.5309  144.6777  161.1179 O.2     1  UNL1       -0.2707
     22 H         142.2285  141.2724  161.7973 H       1  UNL1        0.1550
     23 C         138.8893  143.8177  163.6565 C.ar    1  UNL1        0.0697
     24 C         137.7540  143.4453  162.7496 C.ar    1  UNL1        0.0104
     25 C         138.0197  142.6629  161.4977 C.ar    1  UNL1        0.0020
     26 C         139.4207  142.2529  161.1527 C.ar    1  UNL1        0.0147
     27 C         140.5560  142.6252  162.0596 C.ar    1  UNL1        0.0511
     28 C         140.2902  143.4076  163.3115 C.ar    1  UNL1        0.0249
     29 N         138.3578  145.3825  166.1603 N.1     1  UNL1       -0.1908
     30 C         138.6236  144.6001  164.9084 C.1     1  UNL1        0.1005
@<TRIPOS>BOND
     1    29    30    3
     2    30    23    1
     3    23    24   ar
     4    24    25   ar
     5    25    26   ar
     6    26    27   ar
     7    27    19    1
     8    19    20   am
     9    20    21    2
    10    20    18    1
    11    18    17    1
    12    17     1    1
    13     1     2   ar
    14     2     3   ar
    15     3     4   ar
    16     4     7    1
    17     7     8    2
    18     7     9    1
    19     9    10   ar
    20    10    11   ar
    21    11    12    1
    22    11    13   ar
    23    13    14   ar
    24    14    15   ar
    25    15    16    1
    26     4     5   ar
    27     5     6   ar
    28    27    28   ar
    29    28    23   ar
    30     6     1   ar
    31    15     9   ar
    32    19    22    1
@<TRIPOS>MOLECULE
*****
 30 32 0 0 0
SMALL
GASTEIGER

@<TRIPOS>ATOM
      1 C         138.5971  143.9296  163.4515 C.ar    1  UNL1        0.1393
      2 C         137.8151  142.7099  163.0631 C.ar    1  UNL1        0.0370
      3 C         137.9206  141.4586  163.8835 C.ar    1  UNL1        0.0063
      4 C         138.8080  141.4270  165.0924 C.ar    1  UNL1        0.0392
      5 C         139.5900  142.6466  165.4808 C.ar    1  UNL1        0.0063
      6 C         139.4846  143.8980  164.6604 C.ar    1  UNL1        0.0370
      7 C         138.9135  140.1757  165.9128 C.2     1  UNL1        0.1961
      8 O         137.8941  139.0868  165.7544 O.2     1  UNL1       -0.2866
      9 C         140.0385  140.0133  166.8918 C.ar    1  UNL1        0.0460
     10 C         139.8109  140.2899  168.3484 C.ar    1  UNL1        0.0151
     11 C         140.9357  140.1275  169.3273 C.ar    1  UNL1        0.0578
     12 CL        140.7082  140.4041  170.7839 Cl      1  UNL1       -0.0822
     13 C         142.2882  139.6885  168.8496 C.ar    1  UNL1        0.0119
     14 C         142.5158  139.4119  167.3930 C.ar    1  UNL1        0.0077
     15 C         141.3909  139.5743  166.4141 C.ar    1  UNL1        0.0377
     16 BR        141.6184  139.2977  164.9575 Br      1  UNL1       -0.0489
     17 O         138.4916  145.1809  162.6311 O.3     1  UNL1       -0.4656
     18 C         139.7020  145.7219  161.9295 C.3     1  UNL1        0.2897
     19 N         141.4888  145.4968  160.0569 N.am    1  UNL1       -0.2808
     20 C         140.1732  145.0914  160.6526 C.2     1  UNL1        0.2707
     21 O         139.3288  144.0555  159.9715 O.2     1  UNL1       -0.2707
     22 H         142.0429  146.1767  160.5039 H       1  UNL1        0.1550
     23 C         143.1536  142.9216  157.5376 C.ar    1  UNL1        0.0697
     24 C         142.9024  143.6052  156.2263 C.ar    1  UNL1        0.0104
     25 C         142.1801  144.9193  156.1918 C.ar    1  UNL1        0.0020
     26 C         141.7088  145.5499  157.4686 C.ar    1  UNL1        0.0147
     27 C         141.9600  144.8663  158.7799 C.ar    1  UNL1        0.0511
     28 C         142.6824  143.5521  158.8144 C.ar    1  UNL1        0.0249
     29 N         144.5983  140.2933  157.6065 N.1     1  UNL1       -0.1908
     30 C         143.8760  141.6074  157.5720 C.1     1  UNL1        0.1005
@<TRIPOS>BOND
     1    29    30    3
     2    30    23    1
     3    23    24   ar
     4    24    25   ar
     5    25    26   ar
     6    26    27   ar
     7    27    19    1
     8    19    20   am
     9    20    21    2
    10    20    18    1
    11    18    17    1
    12    17     1    1
    13     1     2   ar
    14     2     3   ar
    15     3     4   ar
    16     4     7    1
    17     7     8    2
    18     7     9    1
    19     9    10   ar
    20    10    11   ar
    21    11    12    1
    22    11    13   ar
    23    13    14   ar
    24    14    15   ar
    25    15    16    1
    26     4     5   ar
    27     5     6   ar
    28    27    28   ar
    29    28    23   ar
    30     6     1   ar
    31    15     9   ar
    32    19    22    1
@<TRIPOS>MOLECULE
*****
 30 32 0 0 0
SMALL
GASTEIGER

@<TRIPOS>ATOM
      1 C         139.5296  137.9544  163.3594 C.ar    1  UNL1        0.1393
      2 C         139.1961  138.4297  164.7425 C.ar    1  UNL1        0.0370
      3 C         140.2938  138.6898  165.7312 C.ar    1  UNL1        0.0063
      4 C         141.7249  138.4746  165.3368 C.ar    1  UNL1        0.0392
      5 C         142.0584  137.9994  163.9538 C.ar    1  UNL1        0.0063
      6 C         140.9608  137.7392  162.9650 C.ar    1  UNL1        0.0370
      7 C         142.8225  138.7347  166.3255 C.2     1  UNL1        0.1961
      8 O         143.9976  137.8056  166.4032 O.2     1  UNL1       -0.2866
      9 C         142.7451  139.9240  167.2364 C.ar    1  UNL1        0.0460
     10 C         142.4235  139.7360  168.6894 C.ar    1  UNL1        0.0151
     11 C         142.3461  140.9252  169.6004 C.ar    1  UNL1        0.0578
     12 CL        142.0245  140.7373  171.0534 Cl      1  UNL1       -0.0822
     13 C         142.5904  142.3024  169.0583 C.ar    1  UNL1        0.0119
     14 C         142.9120  142.4903  167.6053 C.ar    1  UNL1        0.0077
     15 C         142.9894  141.3011  166.6943 C.ar    1  UNL1        0.0377
     16 BR        143.3110  141.4890  165.2413 Br      1  UNL1       -0.0489
     17 O         138.4320  137.6943  162.3707 O.3     1  UNL1       -0.4656
     18 C         137.7076  138.8435  161.7348 C.3     1  UNL1        0.2897
     19 N         138.3095  141.1361  162.7987 N.am    1  UNL1       -0.2808
     20 C         138.3690  140.1864  161.6391 C.2     1  UNL1        0.2707
     21 O         139.0900  140.5797  160.3839 O.2     1  UNL1       -0.2707
     22 H         137.8364  140.8780  163.6225 H       1  UNL1        0.1550
     23 C         141.1251  143.9162  162.4924 C.ar    1  UNL1        0.0697
     24 C         140.2939  145.1647  162.5117 C.ar    1  UNL1        0.0104
     25 C         138.8013  145.0704  162.6266 C.ar    1  UNL1        0.0020
     26 C         138.1398  143.7275  162.7223 C.ar    1  UNL1        0.0147
     27 C         138.9710  142.4790  162.7030 C.ar    1  UNL1        0.0511
     28 C         140.4636  142.5734  162.5880 C.ar    1  UNL1        0.0249
     29 N         144.1103  144.1049  162.2624 N.1     1  UNL1       -0.1908
     30 C         142.6177  144.0106  162.3774 C.1     1  UNL1        0.1005
@<TRIPOS>BOND
     1    29    30    3
     2    30    23    1
     3    23    24   ar
     4    24    25   ar
     5    25    26   ar
     6    26    27   ar
     7    27    19    1
     8    19    20   am
     9    20    21    2
    10    20    18    1
    11    18    17    1
    12    17     1    1
    13     1     2   ar
    14     2     3   ar
    15     3     4   ar
    16     4     7    1
    17     7     8    2
    18     7     9    1
    19     9    10   ar
    20    10    11   ar
    21    11    12    1
    22    11    13   ar
    23    13    14   ar
    24    14    15   ar
    25    15    16    1
    26     4     5   ar
    27     5     6   ar
    28    27    28   ar
    29    28    23   ar
    30     6     1   ar
    31    15     9   ar
    32    19    22    1
@<TRIPOS>MOLECULE
*****
 30 32 0 0 0
SMALL
GASTEIGER

@<TRIPOS>ATOM
      1 C         139.5097  137.6386  164.4256 C.ar    1  UNL1        0.1393
      2 C         140.9628  137.3121  164.6043 C.ar    1  UNL1        0.0370
      3 C         141.9428  137.6313  163.5145 C.ar    1  UNL1        0.0063
      4 C         141.4697  138.2771  162.2460 C.ar    1  UNL1        0.0392
      5 C         140.0167  138.6037  162.0673 C.ar    1  UNL1        0.0063
      6 C         139.0366  138.2845  163.1571 C.ar    1  UNL1        0.0370
      7 C         142.4497  138.5964  161.1562 C.2     1  UNL1        0.1961
      8 O         142.6997  137.6053  160.0584 O.2     1  UNL1       -0.2866
      9 C         143.1798  139.9068  161.1643 C.ar    1  UNL1        0.0460
     10 C         144.1894  140.1962  162.2352 C.ar    1  UNL1        0.0151
     11 C         144.9195  141.5065  162.2433 C.ar    1  UNL1        0.0578
     12 CL        145.9291  141.7959  163.3143 Cl      1  UNL1       -0.0822
     13 C         144.6400  142.5274  161.1804 C.ar    1  UNL1        0.0119
     14 C         143.6304  142.2380  160.1095 C.ar    1  UNL1        0.0077
     15 C         142.9003  140.9276  160.1014 C.ar    1  UNL1        0.0377
     16 BR        141.8907  140.6382  159.0305 Br      1  UNL1       -0.0489
     17 O         138.5297  137.3194  165.5154 O.3     1  UNL1       -0.4656
     18 C         137.9006  138.4276  166.3066 C.3     1  UNL1        0.2897
     19 N         139.9244  139.9981  166.7407 N.am    1  UNL1       -0.2808
     20 C         138.7343  139.2414  167.2516 C.2     1  UNL1        0.2707
     21 O         138.3778  139.2984  168.7075 O.2     1  UNL1       -0.2707
     22 H         140.1583  139.9606  165.7851 H       1  UNL1        0.1550
     23 C         141.0153  142.8525  169.2729 C.ar    1  UNL1        0.0697
     24 C         142.4251  142.4393  169.5755 C.ar    1  UNL1        0.0104
     25 C         143.0014  141.2124  168.9332 C.ar    1  UNL1        0.0020
     26 C         142.1678  140.3987  167.9882 C.ar    1  UNL1        0.0147
     27 C         140.7580  140.8118  167.6856 C.ar    1  UNL1        0.0511
     28 C         140.1817  142.0387  168.3280 C.ar    1  UNL1        0.0249
     29 N         139.8627  145.3063  170.5576 N.1     1  UNL1       -0.1908
     30 C         140.4390  144.0794  169.9153 C.1     1  UNL1        0.1005
@<TRIPOS>BOND
     1    29    30    3
     2    30    23    1
     3    23    24   ar
     4    24    25   ar
     5    25    26   ar
     6    26    27   ar
     7    27    19    1
     8    19    20   am
     9    20    21    2
    10    20    18    1
    11    18    17    1
    12    17     1    1
    13     1     2   ar
    14     2     3   ar
    15     3     4   ar
    16     4     7    1
    17     7     8    2
    18     7     9    1
    19     9    10   ar
    20    10    11   ar
    21    11    12    1
    22    11    13   ar
    23    13    14   ar
    24    14    15   ar
    25    15    16    1
    26     4     5   ar
    27     5     6   ar
    28    27    28   ar
    29    28    23   ar
    30     6     1   ar
    31    15     9   ar
    32    19    22    1
@<TRIPOS>MOLECULE
*****
 30 32 0 0 0
SMALL
GASTEIGER

@<TRIPOS>ATOM
      1 C         139.1580  144.7956  163.2917 C.ar    1  UNL1        0.1393
      2 C         140.4949  144.7739  163.9716 C.ar    1  UNL1        0.0370
      3 C         140.8303  143.6713  164.9317 C.ar    1  UNL1        0.0063
      4 C         139.8288  142.5904  165.2120 C.ar    1  UNL1        0.0392
      5 C         138.4919  142.6121  164.5322 C.ar    1  UNL1        0.0063
      6 C         138.1565  143.7147  163.5720 C.ar    1  UNL1        0.0370
      7 C         140.1641  141.4879  166.1721 C.2     1  UNL1        0.1961
      8 O         141.0324  141.7684  167.3627 O.2     1  UNL1       -0.2866
      9 C         139.6312  140.1047  165.9417 C.ar    1  UNL1        0.0460
     10 C         138.5293  139.5715  166.8085 C.ar    1  UNL1        0.0151
     11 C         137.9964  138.1885  166.5781 C.ar    1  UNL1        0.0578
     12 CL        136.8944  137.6553  167.4449 Cl      1  UNL1       -0.0822
     13 C         138.5654  137.3385  165.4809 C.ar    1  UNL1        0.0119
     14 C         139.6674  137.8717  164.6141 C.ar    1  UNL1        0.0077
     15 C         140.2003  139.2549  164.8445 C.ar    1  UNL1        0.0377
     16 BR        141.3023  139.7881  163.9777 Br      1  UNL1       -0.0489
     17 O         138.8226  145.8981  162.3316 O.3     1  UNL1       -0.4656
     18 C         139.7036  146.1526  161.1445 C.3     1  UNL1        0.2897
     19 N         141.8571  144.8125  160.5820 N.am    1  UNL1       -0.2808
     20 C         140.3755  145.0056  160.4495 C.2     1  UNL1        0.2707
     21 O         139.5658  144.0519  159.6220 O.2     1  UNL1       -0.2707
     22 H         142.3885  145.4384  161.1252 H       1  UNL1        0.1550
     23 C         143.4808  141.2486  159.9398 C.ar    1  UNL1        0.0697
     24 C         143.8729  141.3715  158.4972 C.ar    1  UNL1        0.0104
     25 C         143.5930  142.6415  157.7495 C.ar    1  UNL1        0.0020
     26 C         142.9211  143.7884  158.4445 C.ar    1  UNL1        0.0147
     27 C         142.5290  143.6655  159.8870 C.ar    1  UNL1        0.0511
     28 C         142.8089  142.3955  160.6347 C.ar    1  UNL1        0.0249
     29 N         144.0405  138.7088  161.4351 N.1     1  UNL1       -0.1908
     30 C         143.7606  139.9787  160.6875 C.1     1  UNL1        0.1005
@<TRIPOS>BOND
     1    29    30    3
     2    30    23    1
     3    23    24   ar
     4    24    25   ar
     5    25    26   ar
     6    26    27   ar
     7    27    19    1
     8    19    20   am
     9    20    21    2
    10    20    18    1
    11    18    17    1
    12    17     1    1
    13     1     2   ar
    14     2     3   ar
    15     3     4   ar
    16     4     7    1
    17     7     8    2
    18     7     9    1
    19     9    10   ar
    20    10    11   ar
    21    11    12    1
    22    11    13   ar
    23    13    14   ar
    24    14    15   ar
    25    15    16    1
    26     4     5   ar
    27     5     6   ar
    28    27    28   ar
    29    28    23   ar
    30     6     1   ar
    31    15     9   ar
    32    19    22    1
@<TRIPOS>MOLECULE
*****
 30 32 0 0 0
SMALL
GASTEIGER

@<TRIPOS>ATOM
      1 C         140.5902  145.1829  163.2981 C.ar    1  UNL1        0.1393
      2 C         139.6018  144.5278  164.2169 C.ar    1  UNL1        0.0370
      3 C         140.0633  143.4938  165.2006 C.ar    1  UNL1        0.0063
      4 C         141.5131  143.1147  165.2656 C.ar    1  UNL1        0.0392
      5 C         142.5015  143.7697  164.3469 C.ar    1  UNL1        0.0063
      6 C         142.0401  144.8038  163.3631 C.ar    1  UNL1        0.0370
      7 C         141.9746  142.0806  166.2493 C.2     1  UNL1        0.1961
      8 O         143.3527  141.4994  166.1355 O.2     1  UNL1       -0.2866
      9 C         141.0579  141.6277  167.3469 C.ar    1  UNL1        0.0460
     10 C         140.8905  142.4674  168.5785 C.ar    1  UNL1        0.0151
     11 C         139.9738  142.0145  169.6760 C.ar    1  UNL1        0.0578
     12 CL        139.8064  142.8542  170.9076 Cl      1  UNL1       -0.0822
     13 C         139.2246  140.7219  169.5420 C.ar    1  UNL1        0.0119
     14 C         139.3921  139.8822  168.3104 C.ar    1  UNL1        0.0077
     15 C         140.3088  140.3351  167.2128 C.ar    1  UNL1        0.0377
     16 BR        140.4762  139.4954  165.9812 Br      1  UNL1       -0.0489
     17 O         140.1288  146.2170  162.3144 O.3     1  UNL1       -0.4656
     18 C         139.9441  145.8501  160.8718 C.3     1  UNL1        0.2897
     19 N         138.8544  143.4971  160.7102 N.am    1  UNL1       -0.2808
     20 C         140.0134  144.4126  160.4487 C.2     1  UNL1        0.2707
     21 O         141.2418  143.8907  159.7641 O.2     1  UNL1       -0.2707
     22 H         138.0482  143.8396  161.1596 H       1  UNL1        0.1550
     23 C         139.4525  139.5757  160.8356 C.ar    1  UNL1        0.0697
     24 C         139.0624  139.1848  159.4410 C.ar    1  UNL1        0.0104
     25 C         138.6030  140.2312  158.4695 C.ar    1  UNL1        0.0020
     26 C         138.5336  141.6686  158.8925 C.ar    1  UNL1        0.0147
     27 C         138.9237  142.0596  160.2871 C.ar    1  UNL1        0.0511
     28 C         139.3832  141.0132  161.2586 C.ar    1  UNL1        0.0249
     29 N         140.3714  137.4829  162.7786 N.1     1  UNL1       -0.1908
     30 C         139.9120  138.5293  161.8071 C.1     1  UNL1        0.1005
@<TRIPOS>BOND
     1    29    30    3
     2    30    23    1
     3    23    24   ar
     4    24    25   ar
     5    25    26   ar
     6    26    27   ar
     7    27    19    1
     8    19    20   am
     9    20    21    2
    10    20    18    1
    11    18    17    1
    12    17     1    1
    13     1     2   ar
    14     2     3   ar
    15     3     4   ar
    16     4     7    1
    17     7     8    2
    18     7     9    1
    19     9    10   ar
    20    10    11   ar
    21    11    12    1
    22    11    13   ar
    23    13    14   ar
    24    14    15   ar
    25    15    16    1
    26     4     5   ar
    27     5     6   ar
    28    27    28   ar
    29    28    23   ar
    30     6     1   ar
    31    15     9   ar
    32    19    22    1
@<TRIPOS>MOLECULE
*****
 30 32 0 0 0
SMALL
GASTEIGER

@<TRIPOS>ATOM
      1 C         139.2467  138.0029  163.5513 C.ar    1  UNL1        0.1393
      2 C         140.6037  137.4496  163.2307 C.ar    1  UNL1        0.0370
      3 C         141.7570  137.7098  164.1537 C.ar    1  UNL1        0.0063
      4 C         141.5535  138.5232  165.3975 C.ar    1  UNL1        0.0392
      5 C         140.1966  139.0765  165.7182 C.ar    1  UNL1        0.0063
      6 C         139.0432  138.8163  164.7950 C.ar    1  UNL1        0.0370
      7 C         142.7068  138.7833  166.3206 C.2     1  UNL1        0.1961
      8 O         143.8896  137.8609  166.3215 O.2     1  UNL1       -0.2866
      9 C         142.6773  139.9660  167.2429 C.ar    1  UNL1        0.0460
     10 C         142.3028  139.7841  168.6840 C.ar    1  UNL1        0.0151
     11 C         142.2733  140.9666  169.6062 C.ar    1  UNL1        0.0578
     12 CL        141.8989  140.7847  171.0473 Cl      1  UNL1       -0.0822
     13 C         142.6183  142.3312  169.0875 C.ar    1  UNL1        0.0119
     14 C         142.9927  142.5131  167.6464 C.ar    1  UNL1        0.0077
     15 C         143.0222  141.3305  166.7241 C.ar    1  UNL1        0.0377
     16 BR        143.3967  141.5124  165.2830 Br      1  UNL1       -0.0489
     17 O         138.0934  137.7427  162.6282 O.3     1  UNL1       -0.4656
     18 C         137.7836  138.7097  161.5242 C.3     1  UNL1        0.2897
     19 N         139.6019  140.5400  161.2178 N.am    1  UNL1       -0.2808
     20 C         138.2180  140.1411  161.6369 C.2     1  UNL1        0.2707
     21 O         137.2685  141.1734  162.1687 O.2     1  UNL1       -0.2707
     22 H         140.2251  139.8625  160.8688 H       1  UNL1        0.1550
     23 C         140.3906  144.3069  160.2492 C.ar    1  UNL1        0.0697
     24 C         140.9052  144.8339  161.5559 C.ar    1  UNL1        0.0104
     25 C         140.9854  143.9295  162.7499 C.ar    1  UNL1        0.0020
     26 C         140.5509  142.4983  162.6372 C.ar    1  UNL1        0.0147
     27 C         140.0364  141.9714  161.3305 C.ar    1  UNL1        0.0511
     28 C         139.9562  142.8757  160.1365 C.ar    1  UNL1        0.0249
     29 N         140.2303  146.1156  157.8611 N.1     1  UNL1       -0.1908
     30 C         140.3104  145.2113  159.0551 C.1     1  UNL1        0.1005
@<TRIPOS>BOND
     1    29    30    3
     2    30    23    1
     3    23    24   ar
     4    24    25   ar
     5    25    26   ar
     6    26    27   ar
     7    27    19    1
     8    19    20   am
     9    20    21    2
    10    20    18    1
    11    18    17    1
    12    17     1    1
    13     1     2   ar
    14     2     3   ar
    15     3     4   ar
    16     4     7    1
    17     7     8    2
    18     7     9    1
    19     9    10   ar
    20    10    11   ar
    21    11    12    1
    22    11    13   ar
    23    13    14   ar
    24    14    15   ar
    25    15    16    1
    26     4     5   ar
    27     5     6   ar
    28    27    28   ar
    29    28    23   ar
    30     6     1   ar
    31    15     9   ar
    32    19    22    1
@<TRIPOS>MOLECULE
*****
 30 32 0 0 0
SMALL
GASTEIGER

@<TRIPOS>ATOM
      1 C         138.9253  144.2701  163.6670 C.ar    1  UNL1        0.1393
      2 C         139.9758  144.0395  164.7127 C.ar    1  UNL1        0.0370
      3 C         140.0330  142.7302  165.4424 C.ar    1  UNL1        0.0063
      4 C         139.0396  141.6516  165.1266 C.ar    1  UNL1        0.0392
      5 C         137.9891  141.8821  164.0811 C.ar    1  UNL1        0.0063
      6 C         137.9320  143.1914  163.3512 C.ar    1  UNL1        0.0370
      7 C         139.0968  140.3423  165.8564 C.2     1  UNL1        0.1961
      8 O         138.0730  139.2823  165.5764 O.2     1  UNL1       -0.2866
      9 C         140.1776  140.0931  166.8662 C.ar    1  UNL1        0.0460
     10 C         139.9245  140.3676  168.3190 C.ar    1  UNL1        0.0151
     11 C         141.0053  140.1183  169.3287 C.ar    1  UNL1        0.0578
     12 CL        140.7522  140.3928  170.7815 Cl      1  UNL1       -0.0822
     13 C         142.3393  139.5945  168.8857 C.ar    1  UNL1        0.0119
     14 C         142.5924  139.3200  167.4330 C.ar    1  UNL1        0.0077
     15 C         141.5116  139.5693  166.4232 C.ar    1  UNL1        0.0377
     16 BR        141.7647  139.2948  164.9704 Br      1  UNL1       -0.0489
     17 O         138.8682  145.5793  162.9373 O.3     1  UNL1       -0.4656
     18 C         139.8478  145.8691  161.8390 C.3     1  UNL1        0.2897
     19 N         141.9281  144.4489  161.2022 N.am    1  UNL1       -0.2808
     20 C         140.4631  144.7406  161.0657 C.2     1  UNL1        0.2707
     21 O         139.6133  143.9039  160.1559 O.2     1  UNL1       -0.2707
     22 H         142.4858  144.9981  161.7993 H       1  UNL1        0.1550
     23 C         143.4289  140.8798  160.3305 C.ar    1  UNL1        0.0697
     24 C         143.7738  141.0634  158.8823 C.ar    1  UNL1        0.0104
     25 C         143.5035  142.3754  158.2074 C.ar    1  UNL1        0.0020
     26 C         142.8883  143.5039  158.9806 C.ar    1  UNL1        0.0147
     27 C         142.5433  143.3203  160.4288 C.ar    1  UNL1        0.0511
     28 C         142.8136  142.0083  161.1038 C.ar    1  UNL1        0.0249
     29 N         143.9695  138.2558  161.6804 N.1     1  UNL1       -0.1908
     30 C         143.6992  139.5678  161.0055 C.1     1  UNL1        0.1005
@<TRIPOS>BOND
     1    29    30    3
     2    30    23    1
     3    23    24   ar
     4    24    25   ar
     5    25    26   ar
     6    26    27   ar
     7    27    19    1
     8    19    20   am
     9    20    21    2
    10    20    18    1
    11    18    17    1
    12    17     1    1
    13     1     2   ar
    14     2     3   ar
    15     3     4   ar
    16     4     7    1
    17     7     8    2
    18     7     9    1
    19     9    10   ar
    20    10    11   ar
    21    11    12    1
    22    11    13   ar
    23    13    14   ar
    24    14    15   ar
    25    15    16    1
    26     4     5   ar
    27     5     6   ar
    28    27    28   ar
    29    28    23   ar
    30     6     1   ar
    31    15     9   ar
    32    19    22    1
@<TRIPOS>MOLECULE
*****
 30 32 0 0 0
SMALL
GASTEIGER

@<TRIPOS>ATOM
      1 C         141.0327  137.6764  162.8785 C.ar    1  UNL1        0.1393
      2 C         141.7777  137.9103  164.1593 C.ar    1  UNL1        0.0370
      3 C         141.0549  138.4430  165.3608 C.ar    1  UNL1        0.0063
      4 C         139.5871  138.7419  165.2816 C.ar    1  UNL1        0.0392
      5 C         138.8421  138.5081  164.0009 C.ar    1  UNL1        0.0063
      6 C         139.5649  137.9753  162.7993 C.ar    1  UNL1        0.0370
      7 C         138.8643  139.2747  166.4831 C.2     1  UNL1        0.1961
      8 O         137.4890  138.7753  166.8135 O.2     1  UNL1       -0.2866
      9 C         139.5168  140.3069  167.3543 C.ar    1  UNL1        0.0460
     10 C         139.8481  139.9832  168.7811 C.ar    1  UNL1        0.0151
     11 C         140.5005  141.0153  169.6522 C.ar    1  UNL1        0.0578
     12 CL        140.8318  140.6916  171.0790 Cl      1  UNL1       -0.0822
     13 C         140.8218  142.3711  169.0967 C.ar    1  UNL1        0.0119
     14 C         140.4906  142.6948  167.6700 C.ar    1  UNL1        0.0077
     15 C         139.8381  141.6626  166.7988 C.ar    1  UNL1        0.0377
     16 BR        139.5068  141.9863  165.3721 Br      1  UNL1       -0.0489
     17 O         141.7555  137.1437  161.6769 O.3     1  UNL1       -0.4656
     18 C         142.6739  138.0372  160.8970 C.3     1  UNL1        0.2897
     19 N         143.3431  140.2018  162.1684 N.am    1  UNL1       -0.2808
     20 C         142.5901  139.5258  161.0612 C.2     1  UNL1        0.2707
     21 O         141.7532  140.3385  160.1182 O.2     1  UNL1       -0.2707
     22 H         143.8924  139.6684  162.7874 H       1  UNL1        0.1550
     23 C         141.8374  143.8463  162.6164 C.ar    1  UNL1        0.0697
     24 C         143.0917  144.6677  162.6611 C.ar    1  UNL1        0.0104
     25 C         144.4298  144.0005  162.5415 C.ar    1  UNL1        0.0020
     26 C         144.5136  142.5119  162.3773 C.ar    1  UNL1        0.0147
     27 C         143.2593  141.6905  162.3327 C.ar    1  UNL1        0.0511
     28 C         141.9212  142.3577  162.4522 C.ar    1  UNL1        0.0249
     29 N         139.1612  145.1807  162.8555 N.1     1  UNL1       -0.1908
     30 C         140.4993  144.5135  162.7360 C.1     1  UNL1        0.1005
@<TRIPOS>BOND
     1    29    30    3
     2    30    23    1
     3    23    24   ar
     4    24    25   ar
     5    25    26   ar
     6    26    27   ar
     7    27    19    1
     8    19    20   am
     9    20    21    2
    10    20    18    1
    11    18    17    1
    12    17     1    1
    13     1     2   ar
    14     2     3   ar
    15     3     4   ar
    16     4     7    1
    17     7     8    2
    18     7     9    1
    19     9    10   ar
    20    10    11   ar
    21    11    12    1
    22    11    13   ar
    23    13    14   ar
    24    14    15   ar
    25    15    16    1
    26     4     5   ar
    27     5     6   ar
    28    27    28   ar
    29    28    23   ar
    30     6     1   ar
    31    15     9   ar
    32    19    22    1
