@<TRIPOS>MOLECULE
*****
 26 29 0 0 0
SMALL
GASTEIGER

@<TRIPOS>ATOM
      1 C         139.2655  142.2653  165.0337 C.ar    1  UNL1        0.0873
      2 C         140.1879  142.6735  166.1439 C.ar    1  UNL1        0.0400
      3 C         140.3658  141.7822  167.3372 C.ar    1  UNL1        0.1032
      4 N         141.2881  142.1903  168.4474 N.ar    1  UNL1       -0.2405
      5 C         141.4660  141.2990  169.6406 C.ar    1  UNL1        0.1195
      6 C         140.7214  139.9995  169.7237 C.ar    1  UNL1        0.1196
      7 N         139.7991  139.5913  168.6135 N.ar    1  UNL1       -0.2379
      8 C         139.6212  140.4826  167.4203 C.ar    1  UNL1        0.1302
      9 C         138.6988  140.0745  166.3100 C.ar    1  UNL1        0.1477
     10 N         138.5210  140.9658  165.1167 N.ar    1  UNL1       -0.2292
     11 C         139.7199  146.3202  161.6822 C.3     1  UNL1        0.1538
     12 N         139.2966  145.0206  162.2999 N.ar    1  UNL1       -0.2473
     13 C         139.7640  144.4769  163.6176 C.ar    1  UNL1        0.0982
     14 C         139.0877  143.1567  163.8404 C.ar    1  UNL1        0.0573
     15 C         138.2024  142.8843  162.6606 C.ar    1  UNL1        0.1231
     16 N         138.3315  144.0362  161.7085 N.ar    1  UNL1       -0.1675
     17 N         137.9543  138.7750  166.3930 N.pl3   1  UNL1       -0.3168
     18 H         137.0653  138.7430  166.8149 H       1  UNL1        0.1482
     19 C         138.5641  137.5241  165.8333 C.3     1  UNL1        0.0895
     20 C         139.4258  137.5934  164.6074 C.3     1  UNL1        0.0353
     21 C         140.9170  137.6821  164.7428 C.3     1  UNL1        0.0045
     22 C         141.7786  137.7514  163.5169 C.3     1  UNL1        0.0172
     23 C         141.1490  137.7319  162.1556 C.3     1  UNL1        0.0686
     24 N         139.6578  137.6431  162.0201 N.3     1  UNL1       -0.2974
     25 C         138.7961  137.5739  163.2460 C.3     1  UNL1        0.0702
     26 H         139.4611  136.8043  161.4742 H       1  UNL1        0.1232
@<TRIPOS>BOND
     1    11    12    1
     2    12    13   ar
     3    13    14   ar
     4    14     1    1
     5     1     2   ar
     6     2     3   ar
     7     3     4   ar
     8     4     5   ar
     9     5     6   ar
    10     6     7   ar
    11     7     8   ar
    12     8     9   ar
    13     9    17    1
    14    17    19    1
    15    20    19    1
    16    20    21    1
    17    21    22    1
    18    22    23    1
    19    23    24    1
    20    24    25    1
    21     9    10   ar
    22    14    15   ar
    23    15    16   ar
    24    16    12   ar
    25    10     1   ar
    26     8     3   ar
    27    25    20    1
    28    17    18    1
    29    24    26    1
@<TRIPOS>MOLECULE
*****
 26 29 0 0 0
SMALL
GASTEIGER

@<TRIPOS>ATOM
      1 C         140.2754  142.0089  167.0332 C.ar    1  UNL1        0.0873
      2 C         140.0841  142.9402  165.8730 C.ar    1  UNL1        0.0400
      3 C         139.2107  142.5357  164.7225 C.ar    1  UNL1        0.1032
      4 N         139.0195  143.4670  163.5624 N.ar    1  UNL1       -0.2405
      5 C         138.1461  143.0624  162.4119 C.ar    1  UNL1        0.1195
      6 C         137.4641  141.7264  162.4216 C.ar    1  UNL1        0.1196
      7 N         137.6554  140.7951  163.5818 N.ar    1  UNL1       -0.2379
      8 C         138.5287  141.1997  164.7322 C.ar    1  UNL1        0.1302
      9 C         138.7200  140.2684  165.8924 C.ar    1  UNL1        0.1477
     10 N         139.5934  140.6730  167.0429 N.ar    1  UNL1       -0.2292
     11 C         144.4812  142.6624  170.1582 C.3     1  UNL1        0.1538
     12 N         143.0820  142.7138  169.6201 N.ar    1  UNL1       -0.2473
     13 C         142.6155  142.1299  168.3194 C.ar    1  UNL1        0.0982
     14 C         141.1488  142.4135  168.1837 C.ar    1  UNL1        0.0573
     15 C         140.7088  143.1726  169.4003 C.ar    1  UNL1        0.1231
     16 N         141.9035  143.3582  170.2881 N.ar    1  UNL1       -0.1675
     17 N         138.0380  138.9324  165.9022 N.pl3   1  UNL1       -0.3168
     18 H         137.0933  138.8640  166.1705 H       1  UNL1        0.1482
     19 C         138.7954  137.7008  165.5030 C.3     1  UNL1        0.0895
     20 C         139.7384  137.7450  164.3373 C.3     1  UNL1        0.0353
     21 C         141.2144  137.8738  164.5712 C.3     1  UNL1        0.0045
     22 C         142.1574  137.9180  163.4056 C.3     1  UNL1        0.0172
     23 C         141.6245  137.8336  162.0060 C.3     1  UNL1        0.0686
     24 N         140.1484  137.7048  161.7721 N.3     1  UNL1       -0.2974
     25 C         139.2053  137.6606  162.9377 C.3     1  UNL1        0.0702
     26 H         140.0077  136.8420  161.2466 H       1  UNL1        0.1232
@<TRIPOS>BOND
     1    11    12    1
     2    12    13   ar
     3    13    14   ar
     4    14     1    1
     5     1     2   ar
     6     2     3   ar
     7     3     4   ar
     8     4     5   ar
     9     5     6   ar
    10     6     7   ar
    11     7     8   ar
    12     8     9   ar
    13     9    17    1
    14    17    19    1
    15    20    19    1
    16    20    21    1
    17    21    22    1
    18    22    23    1
    19    23    24    1
    20    24    25    1
    21     9    10   ar
    22    14    15   ar
    23    15    16   ar
    24    16    12   ar
    25    10     1   ar
    26     8     3   ar
    27    25    20    1
    28    17    18    1
    29    24    26    1
@<TRIPOS>MOLECULE
*****
 26 29 0 0 0
SMALL
GASTEIGER

@<TRIPOS>ATOM
      1 C         138.5696  140.8615  164.1357 C.ar    1  UNL1        0.0873
      2 C         138.7323  139.9615  162.9468 C.ar    1  UNL1        0.0400
      3 C         138.6023  140.5193  161.5604 C.ar    1  UNL1        0.1032
      4 N         138.7651  139.6193  160.3715 N.ar    1  UNL1       -0.2405
      5 C         138.6351  140.1772  158.9852 C.ar    1  UNL1        0.1195
      6 C         138.3424  141.6350  158.7878 C.ar    1  UNL1        0.1196
      7 N         138.1797  142.5350  159.9767 N.ar    1  UNL1       -0.2379
      8 C         138.3096  141.9772  161.3630 C.ar    1  UNL1        0.1302
      9 C         138.1469  142.8772  162.5519 C.ar    1  UNL1        0.1477
     10 N         138.2769  142.3194  163.9382 N.ar    1  UNL1       -0.2292
     11 C         140.1141  140.1366  169.1327 C.3     1  UNL1        0.1538
     12 N         139.4095  139.9705  167.8189 N.ar    1  UNL1       -0.2473
     13 C         139.6010  140.8256  166.6014 C.ar    1  UNL1        0.0982
     14 C         138.6995  140.3037  165.5221 C.ar    1  UNL1        0.0573
     15 C         137.9509  139.1261  166.0724 C.ar    1  UNL1        0.1231
     16 N         138.3897  138.9202  167.4919 N.ar    1  UNL1       -0.1675
     17 N         137.8542  144.3351  162.3545 N.pl3   1  UNL1       -0.3168
     18 H         137.0133  144.6146  161.9255 H       1  UNL1        0.1482
     19 C         138.8425  145.3670  162.8107 C.3     1  UNL1        0.0895
     20 C         140.3133  145.0821  162.7348 C.3     1  UNL1        0.0353
     21 C         141.1046  144.8830  163.9934 C.3     1  UNL1        0.0045
     22 C         142.5754  144.5980  163.9174 C.3     1  UNL1        0.0172
     23 C         143.2548  144.5123  162.5829 C.3     1  UNL1        0.0686
     24 N         142.4634  144.7114  161.3242 N.3     1  UNL1       -0.2974
     25 C         140.9927  144.9963  161.4002 C.3     1  UNL1        0.0702
     26 H         142.5704  143.8609  160.7715 H       1  UNL1        0.1232
@<TRIPOS>BOND
     1    11    12    1
     2    12    13   ar
     3    13    14   ar
     4    14     1    1
     5     1     2   ar
     6     2     3   ar
     7     3     4   ar
     8     4     5   ar
     9     5     6   ar
    10     6     7   ar
    11     7     8   ar
    12     8     9   ar
    13     9    17    1
    14    17    19    1
    15    20    19    1
    16    20    21    1
    17    21    22    1
    18    22    23    1
    19    23    24    1
    20    24    25    1
    21     9    10   ar
    22    14    15   ar
    23    15    16   ar
    24    16    12   ar
    25    10     1   ar
    26     8     3   ar
    27    25    20    1
    28    17    18    1
    29    24    26    1
@<TRIPOS>MOLECULE
*****
 26 29 0 0 0
SMALL
GASTEIGER

@<TRIPOS>ATOM
      1 C         140.7672  142.5825  165.8481 C.ar    1  UNL1        0.0873
      2 C         140.5735  142.7740  167.3231 C.ar    1  UNL1        0.0400
      3 C         141.2816  141.8773  168.2952 C.ar    1  UNL1        0.1032
      4 N         141.0879  142.0688  169.7702 N.ar    1  UNL1       -0.2405
      5 C         141.7959  141.1722  170.7422 C.ar    1  UNL1        0.1195
      6 C         142.6976  140.0841  170.2392 C.ar    1  UNL1        0.1196
      7 N         142.8912  139.8927  168.7641 N.ar    1  UNL1       -0.2379
      8 C         142.1832  140.7893  167.7922 C.ar    1  UNL1        0.1302
      9 C         142.3769  140.5978  166.3170 C.ar    1  UNL1        0.1477
     10 N         141.6689  141.4944  165.3450 N.ar    1  UNL1       -0.2292
     11 C         139.8355  146.0941  162.0164 C.3     1  UNL1        0.1538
     12 N         139.6310  145.0933  163.1148 N.ar    1  UNL1       -0.2473
     13 C         140.7130  144.3853  163.8753 C.ar    1  UNL1        0.0982
     14 C         140.0592  143.4791  164.8760 C.ar    1  UNL1        0.0573
     15 C         138.5733  143.6269  164.7340 C.ar    1  UNL1        0.1231
     16 N         138.3086  144.6245  163.6456 N.ar    1  UNL1       -0.1675
     17 N         143.2786  139.5098  165.8140 N.pl3   1  UNL1       -0.3168
     18 H         144.2347  139.6919  165.6661 H       1  UNL1        0.1482
     19 C         142.7235  138.1442  165.5363 C.3     1  UNL1        0.0895
     20 C         141.5650  137.9822  164.5974 C.3     1  UNL1        0.0353
     21 C         140.1606  138.0739  165.1163 C.3     1  UNL1        0.0045
     22 C         139.0020  137.9119  164.1774 C.3     1  UNL1        0.0172
     23 C         139.2478  137.6583  162.7196 C.3     1  UNL1        0.0686
     24 N         140.6523  137.5666  162.2006 N.3     1  UNL1       -0.2974
     25 C         141.8108  137.7286  163.1395 C.3     1  UNL1        0.0702
     26 H         140.7496  138.2876  161.4857 H       1  UNL1        0.1232
@<TRIPOS>BOND
     1    11    12    1
     2    12    13   ar
     3    13    14   ar
     4    14     1    1
     5     1     2   ar
     6     2     3   ar
     7     3     4   ar
     8     4     5   ar
     9     5     6   ar
    10     6     7   ar
    11     7     8   ar
    12     8     9   ar
    13     9    17    1
    14    17    19    1
    15    20    19    1
    16    20    21    1
    17    21    22    1
    18    22    23    1
    19    23    24    1
    20    24    25    1
    21     9    10   ar
    22    14    15   ar
    23    15    16   ar
    24    16    12   ar
    25    10     1   ar
    26     8     3   ar
    27    25    20    1
    28    17    18    1
    29    24    26    1
@<TRIPOS>MOLECULE
*****
 26 29 0 0 0
SMALL
GASTEIGER

@<TRIPOS>ATOM
      1 C         139.4629  140.3704  166.2185 C.ar    1  UNL1        0.0873
      2 C         139.1896  139.1962  165.3259 C.ar    1  UNL1        0.0400
      3 C         138.6744  139.4158  163.9343 C.ar    1  UNL1        0.1032
      4 N         138.4011  138.2417  163.0418 N.ar    1  UNL1       -0.2405
      5 C         137.8860  138.4613  161.6502 C.ar    1  UNL1        0.1195
      6 C         137.6442  139.8551  161.1513 C.ar    1  UNL1        0.1196
      7 N         137.9176  141.0292  162.0438 N.ar    1  UNL1       -0.2379
      8 C         138.4327  140.8096  163.4353 C.ar    1  UNL1        0.1302
      9 C         138.7060  141.9837  164.3279 C.ar    1  UNL1        0.1477
     10 N         139.2211  141.7641  165.7195 N.ar    1  UNL1       -0.2292
     11 C         142.7175  139.6311  170.3102 C.3     1  UNL1        0.1538
     12 N         141.4740  139.8110  169.4908 N.ar    1  UNL1       -0.2473
     13 C         141.4187  140.0187  168.0062 C.ar    1  UNL1        0.0982
     14 C         139.9780  140.1508  167.6101 C.ar    1  UNL1        0.0573
     15 C         139.1429  140.0247  168.8497 C.ar    1  UNL1        0.1231
     16 N         140.0675  139.8147  170.0121 N.ar    1  UNL1       -0.1675
     17 N         138.4642  143.3775  163.8290 N.pl3   1  UNL1       -0.3168
     18 H         137.6960  143.5639  163.2422 H       1  UNL1        0.1482
     19 C         139.3929  144.4872  164.2240 C.3     1  UNL1        0.0895
     20 C         140.8142  144.4822  163.7445 C.3     1  UNL1        0.0353
     21 C         141.8972  143.9161  164.6143 C.3     1  UNL1        0.0045
     22 C         143.3185  143.9112  164.1348 C.3     1  UNL1        0.0172
     23 C         143.6568  144.4723  162.7855 C.3     1  UNL1        0.0686
     24 N         142.5737  145.0384  161.9156 N.3     1  UNL1       -0.2974
     25 C         141.1525  145.0434  162.3951 C.3     1  UNL1        0.0702
     26 H         142.5887  144.5084  161.0442 H       1  UNL1        0.1232
@<TRIPOS>BOND
     1    11    12    1
     2    12    13   ar
     3    13    14   ar
     4    14     1    1
     5     1     2   ar
     6     2     3   ar
     7     3     4   ar
     8     4     5   ar
     9     5     6   ar
    10     6     7   ar
    11     7     8   ar
    12     8     9   ar
    13     9    17    1
    14    17    19    1
    15    20    19    1
    16    20    21    1
    17    21    22    1
    18    22    23    1
    19    23    24    1
    20    24    25    1
    21     9    10   ar
    22    14    15   ar
    23    15    16   ar
    24    16    12   ar
    25    10     1   ar
    26     8     3   ar
    27    25    20    1
    28    17    18    1
    29    24    26    1
@<TRIPOS>MOLECULE
*****
 26 29 0 0 0
SMALL
GASTEIGER

@<TRIPOS>ATOM
      1 C         142.1956  139.6831  165.9607 C.ar    1  UNL1        0.0873
      2 C         143.3062  139.3061  165.0255 C.ar    1  UNL1        0.0400
      3 C         142.9912  138.8582  163.6290 C.ar    1  UNL1        0.1032
      4 N         144.1017  138.4812  162.6938 N.ar    1  UNL1       -0.2405
      5 C         143.7867  138.0333  161.2974 C.ar    1  UNL1        0.1195
      6 C         142.3611  137.9623  160.8361 C.ar    1  UNL1        0.1196
      7 N         141.2506  138.3393  161.7713 N.ar    1  UNL1       -0.2379
      8 C         141.5656  138.7872  163.1677 C.ar    1  UNL1        0.1302
      9 C         140.4551  139.1642  164.1030 C.ar    1  UNL1        0.1477
     10 N         140.7701  139.6121  165.4994 N.ar    1  UNL1       -0.2292
     11 C         143.2230  142.7381  170.1431 C.3     1  UNL1        0.1538
     12 N         142.9828  141.5354  169.2796 N.ar    1  UNL1       -0.2473
     13 C         142.6755  141.5511  167.8114 C.ar    1  UNL1        0.0982
     14 C         142.5106  140.1311  167.3572 C.ar    1  UNL1        0.0573
     15 C         142.7160  139.2377  168.5445 C.ar    1  UNL1        0.1231
     16 N         143.0078  140.1056  169.7326 N.ar    1  UNL1       -0.1675
     17 N         139.0295  139.0932  163.6417 N.pl3   1  UNL1       -0.3168
     18 H         138.7667  138.4398  162.9537 H       1  UNL1        0.1482
     19 C         138.0044  140.0176  164.2286 C.3     1  UNL1        0.0895
     20 C         137.9544  141.4533  163.7969 C.3     1  UNL1        0.0353
     21 C         138.2097  142.5453  164.7929 C.3     1  UNL1        0.0045
     22 C         138.1597  143.9810  164.3612 C.3     1  UNL1        0.0172
     23 C         137.8545  144.3246  162.9333 C.3     1  UNL1        0.0686
     24 N         137.5992  143.2325  161.9372 N.3     1  UNL1       -0.2974
     25 C         137.6492  141.7968  162.3689 C.3     1  UNL1        0.0702
     26 H         138.2922  143.3416  161.1967 H       1  UNL1        0.1232
@<TRIPOS>BOND
     1    11    12    1
     2    12    13   ar
     3    13    14   ar
     4    14     1    1
     5     1     2   ar
     6     2     3   ar
     7     3     4   ar
     8     4     5   ar
     9     5     6   ar
    10     6     7   ar
    11     7     8   ar
    12     8     9   ar
    13     9    17    1
    14    17    19    1
    15    20    19    1
    16    20    21    1
    17    21    22    1
    18    22    23    1
    19    23    24    1
    20    24    25    1
    21     9    10   ar
    22    14    15   ar
    23    15    16   ar
    24    16    12   ar
    25    10     1   ar
    26     8     3   ar
    27    25    20    1
    28    17    18    1
    29    24    26    1
@<TRIPOS>MOLECULE
*****
 26 29 0 0 0
SMALL
GASTEIGER

@<TRIPOS>ATOM
      1 C         139.2926  139.0645  164.5051 C.ar    1  UNL1        0.0873
      2 C         138.3685  139.6828  163.4982 C.ar    1  UNL1        0.0400
      3 C         138.6565  139.5460  162.0325 C.ar    1  UNL1        0.1032
      4 N         137.7325  140.1642  161.0256 N.ar    1  UNL1       -0.2405
      5 C         138.0205  140.0274  159.5599 C.ar    1  UNL1        0.1195
      6 C         139.2326  139.2722  159.1011 C.ar    1  UNL1        0.1196
      7 N         140.1567  138.6540  160.1079 N.ar    1  UNL1       -0.2379
      8 C         139.8687  138.7908  161.5736 C.ar    1  UNL1        0.1302
      9 C         140.7928  138.1725  162.5805 C.ar    1  UNL1        0.1477
     10 N         140.5047  138.3094  164.0462 N.ar    1  UNL1       -0.2292
     11 C         139.6211  140.5053  169.5743 C.3     1  UNL1        0.1538
     12 N         139.1556  139.8636  168.3009 N.ar    1  UNL1       -0.2473
     13 C         139.7967  140.0126  166.9529 C.ar    1  UNL1        0.0982
     14 C         139.0046  139.2014  165.9708 C.ar    1  UNL1        0.0573
     15 C         137.8740  138.5511  166.7117 C.ar    1  UNL1        0.1231
     16 N         137.9673  138.9604  168.1518 N.ar    1  UNL1       -0.1675
     17 N         142.0049  137.4174  162.1217 N.pl3   1  UNL1       -0.3168
     18 H         142.0628  136.4452  162.2654 H       1  UNL1        0.1482
     19 C         143.1288  138.1436  161.4439 C.3     1  UNL1        0.0895
     20 C         143.9171  139.1747  162.1958 C.3     1  UNL1        0.0353
     21 C         144.2342  138.9651  163.6468 C.3     1  UNL1        0.0045
     22 C         145.0225  139.9962  164.3988 C.3     1  UNL1        0.0172
     23 C         145.4936  141.2369  163.6998 C.3     1  UNL1        0.0686
     24 N         145.1765  141.4465  162.2487 N.3     1  UNL1       -0.2974
     25 C         144.3882  140.4154  161.4967 C.3     1  UNL1        0.0702
     26 H         146.0683  141.5467  161.7638 H       1  UNL1        0.1232
@<TRIPOS>BOND
     1    11    12    1
     2    12    13   ar
     3    13    14   ar
     4    14     1    1
     5     1     2   ar
     6     2     3   ar
     7     3     4   ar
     8     4     5   ar
     9     5     6   ar
    10     6     7   ar
    11     7     8   ar
    12     8     9   ar
    13     9    17    1
    14    17    19    1
    15    20    19    1
    16    20    21    1
    17    21    22    1
    18    22    23    1
    19    23    24    1
    20    24    25    1
    21     9    10   ar
    22    14    15   ar
    23    15    16   ar
    24    16    12   ar
    25    10     1   ar
    26     8     3   ar
    27    25    20    1
    28    17    18    1
    29    24    26    1
@<TRIPOS>MOLECULE
*****
 26 29 0 0 0
SMALL
GASTEIGER

@<TRIPOS>ATOM
      1 C         140.2199  142.4946  166.2002 C.ar    1  UNL1        0.0873
      2 C         139.8734  141.1365  165.6658 C.ar    1  UNL1        0.0400
      3 C         139.1517  141.0072  164.3572 C.ar    1  UNL1        0.1032
      4 N         138.8052  139.6491  163.8229 N.ar    1  UNL1       -0.2405
      5 C         138.0835  139.5198  162.5143 C.ar    1  UNL1        0.1195
      6 C         137.7084  140.7485  161.7400 C.ar    1  UNL1        0.1196
      7 N         138.0549  142.1065  162.2743 N.ar    1  UNL1       -0.2379
      8 C         138.7766  142.2359  163.5829 C.ar    1  UNL1        0.1302
      9 C         139.1231  143.5940  164.1173 C.ar    1  UNL1        0.1477
     10 N         139.8448  143.7233  165.4259 N.ar    1  UNL1       -0.2292
     11 C         143.9813  142.3029  169.9011 C.3     1  UNL1        0.1538
     12 N         142.6705  142.5359  169.2099 N.ar    1  UNL1       -0.2473
     13 C         142.3663  142.2353  167.7721 C.ar    1  UNL1        0.0982
     14 C         140.9416  142.6240  167.5088 C.ar    1  UNL1        0.0573
     15 C         140.3654  143.1647  168.7838 C.ar    1  UNL1        0.1231
     16 N         141.4339  143.1103  169.8351 N.ar    1  UNL1       -0.1675
     17 N         138.7480  144.8227  163.3430 N.pl3   1  UNL1       -0.3168
     18 H         137.8221  145.1564  163.3675 H       1  UNL1        0.1482
     19 C         139.7836  145.5431  162.5315 C.3     1  UNL1        0.0895
     20 C         141.2154  145.0983  162.5775 C.3     1  UNL1        0.0353
     21 C         142.0826  145.4810  163.7401 C.3     1  UNL1        0.0045
     22 C         143.5144  145.0362  163.7861 C.3     1  UNL1        0.0172
     23 C         144.0790  144.2088  162.6696 C.3     1  UNL1        0.0686
     24 N         143.2118  143.8262  161.5070 N.3     1  UNL1       -0.2974
     25 C         141.7800  144.2709  161.4610 C.3     1  UNL1        0.0702
     26 H         143.2049  142.8069  161.4677 H       1  UNL1        0.1232
@<TRIPOS>BOND
     1    11    12    1
     2    12    13   ar
     3    13    14   ar
     4    14     1    1
     5     1     2   ar
     6     2     3   ar
     7     3     4   ar
     8     4     5   ar
     9     5     6   ar
    10     6     7   ar
    11     7     8   ar
    12     8     9   ar
    13     9    17    1
    14    17    19    1
    15    20    19    1
    16    20    21    1
    17    21    22    1
    18    22    23    1
    19    23    24    1
    20    24    25    1
    21     9    10   ar
    22    14    15   ar
    23    15    16   ar
    24    16    12   ar
    25    10     1   ar
    26     8     3   ar
    27    25    20    1
    28    17    18    1
    29    24    26    1
@<TRIPOS>MOLECULE
*****
 26 29 0 0 0
SMALL
GASTEIGER

@<TRIPOS>ATOM
      1 C         143.0542  141.5875  165.4396 C.ar    1  UNL1        0.0873
      2 C         143.4758  142.2594  166.7127 C.ar    1  UNL1        0.0400
      3 C         142.6422  142.1107  167.9509 C.ar    1  UNL1        0.1032
      4 N         143.0638  142.7827  169.2240 N.ar    1  UNL1       -0.2405
      5 C         142.2303  142.6340  170.4621 C.ar    1  UNL1        0.1195
      6 C         140.9752  141.8132  170.4272 C.ar    1  UNL1        0.1196
      7 N         140.5536  141.1413  169.1542 N.ar    1  UNL1       -0.2379
      8 C         141.3872  141.2900  167.9160 C.ar    1  UNL1        0.1302
      9 C         140.9656  140.6180  166.6429 C.ar    1  UNL1        0.1477
     10 N         141.7992  140.7667  165.4047 N.ar    1  UNL1       -0.2292
     11 C         144.5250  142.5659  160.4636 C.3     1  UNL1        0.1538
     12 N         144.5637  142.1859  161.9141 N.ar    1  UNL1       -0.2473
     13 C         143.3961  142.1810  162.8559 C.ar    1  UNL1        0.0982
     14 C         143.8878  141.7362  164.2014 C.ar    1  UNL1        0.0573
     15 C         145.3591  141.4662  164.0913 C.ar    1  UNL1        0.1231
     16 N         145.7770  141.7442  162.6778 N.ar    1  UNL1       -0.1675
     17 N         139.7106  139.7973  166.6080 N.pl3   1  UNL1       -0.3168
     18 H         139.6542  138.9617  167.1256 H       1  UNL1        0.1482
     19 C         138.5413  140.2496  165.7844 C.3     1  UNL1        0.0895
     20 C         138.3495  139.7138  164.3966 C.3     1  UNL1        0.0353
     21 C         138.8484  138.3434  164.0460 C.3     1  UNL1        0.0045
     22 C         138.6565  137.8076  162.6582 C.3     1  UNL1        0.0172
     23 C         137.9657  138.6423  161.6209 C.3     1  UNL1        0.0686
     24 N         137.4667  140.0128  161.9714 N.3     1  UNL1       -0.2974
     25 C         137.6586  140.5486  163.3593 C.3     1  UNL1        0.0702
     26 H         136.4629  140.0158  161.7908 H       1  UNL1        0.1232
@<TRIPOS>BOND
     1    11    12    1
     2    12    13   ar
     3    13    14   ar
     4    14     1    1
     5     1     2   ar
     6     2     3   ar
     7     3     4   ar
     8     4     5   ar
     9     5     6   ar
    10     6     7   ar
    11     7     8   ar
    12     8     9   ar
    13     9    17    1
    14    17    19    1
    15    20    19    1
    16    20    21    1
    17    21    22    1
    18    22    23    1
    19    23    24    1
    20    24    25    1
    21     9    10   ar
    22    14    15   ar
    23    15    16   ar
    24    16    12   ar
    25    10     1   ar
    26     8     3   ar
    27    25    20    1
    28    17    18    1
    29    24    26    1
