@<TRIPOS>MOLECULE
*****
 42 44 0 0 0
SMALL
GASTEIGER

@<TRIPOS>ATOM
      1 N         144.7432  142.2635  160.8017 N.am    1  UNL1       -0.2947
      2 C         143.8902  142.3004  159.5684 C.2     1  UNL1        0.2473
      3 O         142.5408  142.9540  159.6091 O.2     1  UNL1       -0.2701
      4 H         145.6289  141.8345  160.7750 H       1  UNL1        0.1501
      5 N         143.2266  143.1609  164.2600 N.am    1  UNL1       -0.2798
      6 C         143.7388  144.4978  163.8124 C.3     1  UNL1        0.0956
      7 C         144.3692  144.3244  162.4624 C.3     1  UNL1        0.0505
      8 C         144.2467  142.8802  162.0757 C.3     1  UNL1        0.1507
      9 C         143.5405  142.1612  163.1867 C.2     1  UNL1        0.2435
     10 O         143.2069  140.6992  163.2187 O.2     1  UNL1       -0.2731
     11 C         141.0328  143.0105  165.6437 C.3     1  UNL1        0.0196
     12 C         140.3301  142.7236  166.9375 C.3     1  UNL1        0.0176
     13 C         141.1184  142.3003  168.1414 C.3     1  UNL1        0.0576
     14 C         142.6095  142.1639  168.0515 C.3     1  UNL1        0.0177
     15 C         143.3122  142.4508  166.7577 C.3     1  UNL1        0.0212
     16 C         142.5238  142.8741  165.5538 C.3     1  UNL1        0.0754
     17 N         140.4157  142.0134  169.4352 N.3     1  UNL1       -0.2741
     18 C         140.0562  143.1392  170.3590 C.3     1  UNL1        0.0896
     19 C         140.0724  140.6009  169.8051 C.3     1  UNL1        0.0576
     20 C         141.1646  139.5952  170.0196 C.3     1  UNL1        0.0173
     21 C         138.6371  140.1939  169.9605 C.3     1  UNL1        0.0173
     22 C         140.2444  143.4338  164.4398 C.3     1  UNL1        0.0017
     23 C         137.9000  144.2274  163.6499 C.3     1  UNL1        0.0000
     24 C         139.0555  144.3341  164.6005 C.3     1  UNL1        0.0001
     25 C         144.3868  141.6836  158.2944 C.ar    1  UNL1        0.0668
     26 C         145.5341  142.3075  157.5565 C.ar    1  UNL1        0.0096
     27 C         146.0306  141.6907  156.2825 C.ar    1  UNL1        0.0716
     28 C         145.3798  140.4501  155.7464 C.ar    1  UNL1        0.0051
     29 C         144.2325  139.8263  156.4843 C.ar    1  UNL1        0.0148
     30 C         143.7360  140.4430  157.7583 C.ar    1  UNL1        0.0559
     31 N         142.5887  139.8192  158.4962 N.am    1  UNL1       -0.2682
     32 C         142.8364  139.0668  159.7700 C.2     1  UNL1        0.3045
     33 O         144.2315  138.9383  160.3059 O.2     1  UNL1       -0.2525
     34 N         141.6890  138.4430  160.5078 N.am    1  UNL1       -0.2887
     35 H         141.6730  139.9035  158.1445 H       1  UNL1        0.1564
     36 H         140.7734  138.5274  160.1560 H       1  UNL1        0.1510
     37 C         141.9368  137.6906  161.7816 C.3     1  UNL1        0.0910
     38 C         140.8791  137.6462  162.8443 C.3     1  UNL1        0.0230
     39 C         147.1779  142.3145  155.5446 C.3     1  UNL1        0.4186
     40 F         148.3252  142.9382  154.8066 F       1  UNL1       -0.1659
     41 F         146.9149  141.4137  154.3743 F       1  UNL1       -0.1659
     42 F         147.4409  143.2153  156.7148 F       1  UNL1       -0.1659
@<TRIPOS>BOND
     1    23    24    1
     2    24    22    1
     3    11    22    1
     4    11    12    1
     5    12    13    1
     6    13    17    1
     7    17    18    1
     8    17    19    1
     9    19    20    1
    10    19    21    1
    11    13    14    1
    12    14    15    1
    13    15    16    1
    14    16     5    1
    15     5     6    1
    16     6     7    1
    17     7     8    1
    18     8     1    1
    19     1     2   am
    20     2     3    2
    21     2    25    1
    22    25    26   ar
    23    26    27   ar
    24    27    39    1
    25    39    40    1
    26    39    41    1
    27    39    42    1
    28    27    28   ar
    29    28    29   ar
    30    29    30   ar
    31    30    31    1
    32    31    32   am
    33    32    33    2
    34    32    34   am
    35    34    37    1
    36    37    38    1
    37     8     9    1
    38     9    10    2
    39    16    11    1
    40     9     5   am
    41    30    25   ar
    42     1     4    1
    43    31    35    1
    44    34    36    1
@<TRIPOS>MOLECULE
*****
 42 44 0 0 0
SMALL
GASTEIGER

@<TRIPOS>ATOM
      1 N         139.4624  143.6670  160.7511 N.am    1  UNL1       -0.2947
      2 C         140.2808  144.8828  160.4314 C.2     1  UNL1        0.2473
      3 O         140.6847  145.8243  161.5270 O.2     1  UNL1       -0.2701
      4 H         139.1972  143.0490  160.0320 H       1  UNL1        0.1501
      5 N         139.0784  142.6581  164.4794 N.am    1  UNL1       -0.2798
      6 C         137.7421  143.2836  164.2093 C.3     1  UNL1        0.0956
      7 C         137.7233  143.7377  162.7798 C.3     1  UNL1        0.0505
      8 C         139.0480  143.3928  162.1664 C.3     1  UNL1        0.1507
      9 C         139.8855  142.7256  163.2168 C.2     1  UNL1        0.2435
     10 O         141.2845  142.2155  163.0363 O.2     1  UNL1       -0.2731
     11 C         139.1580  140.6588  166.1366 C.3     1  UNL1        0.0196
     12 C         139.6082  140.0693  167.4404 C.3     1  UNL1        0.0176
     13 C         140.4292  140.8897  168.3906 C.3     1  UNL1        0.0576
     14 C         140.7999  142.2995  168.0372 C.3     1  UNL1        0.0177
     15 C         140.3496  142.8890  166.7335 C.3     1  UNL1        0.0212
     16 C         139.5287  142.0686  165.7832 C.3     1  UNL1        0.0754
     17 N         140.8794  140.3002  169.6944 N.3     1  UNL1       -0.2741
     18 C         139.8832  140.0471  170.7869 C.3     1  UNL1        0.0896
     19 C         142.3259  139.9638  169.9057 C.3     1  UNL1        0.0576
     20 C         142.7669  138.5303  169.9291 C.3     1  UNL1        0.0173
     21 C         143.3313  141.0610  170.0937 C.3     1  UNL1        0.0173
     22 C         138.3371  139.8384  165.1863 C.3     1  UNL1        0.0017
     23 C         139.6082  137.6609  164.5599 C.3     1  UNL1        0.0000
     24 C         139.0136  138.9787  164.1601 C.3     1  UNL1        0.0001
     25 C         140.6952  145.1569  159.0161 C.ar    1  UNL1        0.0668
     26 C         139.8272  146.0011  158.1307 C.ar    1  UNL1        0.0096
     27 C         140.2416  146.2754  156.7153 C.ar    1  UNL1        0.0716
     28 C         141.5240  145.7053  156.1855 C.ar    1  UNL1        0.0051
     29 C         142.3919  144.8611  157.0710 C.ar    1  UNL1        0.0148
     30 C         141.9775  144.5869  158.4862 C.ar    1  UNL1        0.0559
     31 N         142.8454  143.7427  159.3717 N.am    1  UNL1       -0.2682
     32 C         142.4727  142.3162  159.6475 C.2     1  UNL1        0.3045
     33 O         141.2320  141.7339  159.0380 O.2     1  UNL1       -0.2525
     34 N         143.3407  141.4721  160.5330 N.am    1  UNL1       -0.2887
     35 H         143.6598  144.1249  159.7717 H       1  UNL1        0.1564
     36 H         144.1550  141.8543  160.9331 H       1  UNL1        0.1510
     37 C         142.9680  140.0456  160.8089 C.3     1  UNL1        0.0910
     38 C         143.7111  138.9319  160.1324 C.3     1  UNL1        0.0230
     39 C         139.3738  147.1195  155.8298 C.3     1  UNL1        0.4186
     40 F         138.5059  147.9637  154.9443 F       1  UNL1       -0.1659
     41 F         139.9311  146.4258  154.6222 F       1  UNL1       -0.1659
     42 F         138.8164  147.8132  157.0374 F       1  UNL1       -0.1659
@<TRIPOS>BOND
     1    23    24    1
     2    24    22    1
     3    11    22    1
     4    11    12    1
     5    12    13    1
     6    13    17    1
     7    17    18    1
     8    17    19    1
     9    19    20    1
    10    19    21    1
    11    13    14    1
    12    14    15    1
    13    15    16    1
    14    16     5    1
    15     5     6    1
    16     6     7    1
    17     7     8    1
    18     8     1    1
    19     1     2   am
    20     2     3    2
    21     2    25    1
    22    25    26   ar
    23    26    27   ar
    24    27    39    1
    25    39    40    1
    26    39    41    1
    27    39    42    1
    28    27    28   ar
    29    28    29   ar
    30    29    30   ar
    31    30    31    1
    32    31    32   am
    33    32    33    2
    34    32    34   am
    35    34    37    1
    36    37    38    1
    37     8     9    1
    38     9    10    2
    39    16    11    1
    40     9     5   am
    41    30    25   ar
    42     1     4    1
    43    31    35    1
    44    34    36    1
@<TRIPOS>MOLECULE
*****
 42 44 0 0 0
SMALL
GASTEIGER

@<TRIPOS>ATOM
      1 N         139.7045  139.9202  160.4396 N.am    1  UNL1       -0.2947
      2 C         140.3437  138.5794  160.2306 C.2     1  UNL1        0.2473
      3 O         140.4794  137.6258  161.3805 O.2     1  UNL1       -0.2701
      4 H         139.6154  140.5461  159.6849 H       1  UNL1        0.1501
      5 N         139.1300  140.9060  164.1496 N.am    1  UNL1       -0.2798
      6 C         137.7230  140.9006  163.6299 C.3     1  UNL1        0.0956
      7 C         137.7669  140.5307  162.1769 C.3     1  UNL1        0.0505
      8 C         139.2012  140.3074  161.7986 C.3     1  UNL1        0.1507
      9 C         140.0436  140.5394  163.0178 C.2     1  UNL1        0.2435
     10 O         141.5374  140.4249  163.0921 O.2     1  UNL1       -0.2731
     11 C         139.9413  142.6228  165.9229 C.3     1  UNL1        0.0196
     12 C         140.3611  142.9392  167.3277 C.3     1  UNL1        0.0176
     13 C         140.3895  141.8552  168.3641 C.3     1  UNL1        0.0576
     14 C         139.9981  140.4549  167.9957 C.3     1  UNL1        0.0177
     15 C         139.5783  140.1385  166.5909 C.3     1  UNL1        0.0212
     16 C         139.5499  141.2225  165.5545 C.3     1  UNL1        0.0754
     17 N         140.8094  142.1717  169.7690 N.3     1  UNL1       -0.2741
     18 C         139.8788  142.9155  170.6804 C.3     1  UNL1        0.0896
     19 C         142.1598  141.7442  170.2625 C.3     1  UNL1        0.0576
     20 C         142.3025  140.4794  171.0563 C.3     1  UNL1        0.0173
     21 C         143.3676  142.5815  169.9623 C.3     1  UNL1        0.0173
     22 C         139.9129  143.7068  164.8865 C.3     1  UNL1        0.0017
     23 C         138.0098  144.4602  163.2863 C.3     1  UNL1        0.0000
     24 C         138.6499  144.4784  164.6427 C.3     1  UNL1        0.0001
     25 C         140.8471  138.1922  158.8717 C.ar    1  UNL1        0.0668
     26 C         139.8793  137.9844  157.7446 C.ar    1  UNL1        0.0096
     27 C         140.3827  137.5972  156.3856 C.ar    1  UNL1        0.0716
     28 C         141.8538  137.4178  156.1539 C.ar    1  UNL1        0.0051
     29 C         142.8215  137.6256  157.2810 C.ar    1  UNL1        0.0148
     30 C         142.3181  138.0128  158.6399 C.ar    1  UNL1        0.0559
     31 N         143.2859  138.2206  159.7670 N.am    1  UNL1       -0.2682
     32 C         143.5247  139.6000  160.3058 C.2     1  UNL1        0.3045
     33 O         142.7957  140.7716  159.7176 O.2     1  UNL1       -0.2525
     34 N         144.4924  139.8077  161.4329 N.am    1  UNL1       -0.2887
     35 H         143.7643  137.4517  160.1531 H       1  UNL1        0.1564
     36 H         144.9708  139.0387  161.8190 H       1  UNL1        0.1510
     37 C         144.7312  141.1871  161.9717 C.3     1  UNL1        0.0910
     38 C         145.3382  141.3664  163.3317 C.3     1  UNL1        0.0230
     39 C         139.4151  137.3894  155.2586 C.3     1  UNL1        0.4186
     40 F         138.4475  137.1815  154.1314 F       1  UNL1       -0.1659
     41 F         140.0961  136.0985  154.9119 F       1  UNL1       -0.1659
     42 F         138.7341  138.6801  155.6051 F       1  UNL1       -0.1659
@<TRIPOS>BOND
     1    23    24    1
     2    24    22    1
     3    11    22    1
     4    11    12    1
     5    12    13    1
     6    13    17    1
     7    17    18    1
     8    17    19    1
     9    19    20    1
    10    19    21    1
    11    13    14    1
    12    14    15    1
    13    15    16    1
    14    16     5    1
    15     5     6    1
    16     6     7    1
    17     7     8    1
    18     8     1    1
    19     1     2   am
    20     2     3    2
    21     2    25    1
    22    25    26   ar
    23    26    27   ar
    24    27    39    1
    25    39    40    1
    26    39    41    1
    27    39    42    1
    28    27    28   ar
    29    28    29   ar
    30    29    30   ar
    31    30    31    1
    32    31    32   am
    33    32    33    2
    34    32    34   am
    35    34    37    1
    36    37    38    1
    37     8     9    1
    38     9    10    2
    39    16    11    1
    40     9     5   am
    41    30    25   ar
    42     1     4    1
    43    31    35    1
    44    34    36    1
@<TRIPOS>MOLECULE
*****
 42 44 0 0 0
SMALL
GASTEIGER

@<TRIPOS>ATOM
      1 N         138.8620  143.2726  160.5996 N.am    1  UNL1       -0.2947
      2 C         139.6411  142.5585  159.5352 C.2     1  UNL1        0.2473
      3 O         141.0995  142.2719  159.7381 O.2     1  UNL1       -0.2701
      4 H         137.9048  143.4607  160.4665 H       1  UNL1        0.1501
      5 N         140.5837  143.6479  164.0580 N.am    1  UNL1       -0.2798
      6 C         140.5891  145.0683  163.5759 C.3     1  UNL1        0.0956
      7 C         139.9448  145.1006  162.2217 C.3     1  UNL1        0.0505
      8 C         139.5412  143.7002  161.8669 C.3     1  UNL1        0.1507
      9 C         139.9360  142.8024  163.0018 C.2     1  UNL1        0.2435
     10 O         139.7209  141.3194  163.0687 O.2     1  UNL1       -0.2731
     11 C         142.5847  142.8149  165.4906 C.3     1  UNL1        0.0196
     12 C         143.1309  142.3259  166.7991 C.3     1  UNL1        0.0176
     13 C         142.2224  142.1808  167.9838 C.3     1  UNL1        0.0576
     14 C         140.7676  142.5247  167.8600 C.3     1  UNL1        0.0177
     15 C         140.2214  143.0138  166.5514 C.3     1  UNL1        0.0212
     16 C         141.1299  143.1588  165.3667 C.3     1  UNL1        0.0754
     17 N         142.7687  141.6917  169.2925 N.3     1  UNL1       -0.2741
     18 C         143.9971  142.3246  169.8759 C.3     1  UNL1        0.0896
     19 C         142.0865  140.5698  170.0177 C.3     1  UNL1        0.0576
     20 C         142.3603  139.1478  169.6266 C.3     1  UNL1        0.0173
     21 C         141.1305  140.8699  171.1340 C.3     1  UNL1        0.0173
     22 C         143.4932  142.9600  164.3058 C.3     1  UNL1        0.0017
     23 C         145.6164  141.6059  163.6669 C.3     1  UNL1        0.0000
     24 C         144.9639  142.7043  164.4528 C.3     1  UNL1        0.0001
     25 C         138.9619  142.1310  158.2680 C.ar    1  UNL1        0.0668
     26 C         138.4170  143.1620  157.3245 C.ar    1  UNL1        0.0096
     27 C         137.7378  142.7345  156.0572 C.ar    1  UNL1        0.0716
     28 C         137.6035  141.2760  155.7336 C.ar    1  UNL1        0.0051
     29 C         138.1484  140.2450  156.6770 C.ar    1  UNL1        0.0148
     30 C         138.8276  140.6725  157.9443 C.ar    1  UNL1        0.0559
     31 N         139.3725  139.6415  158.8877 N.am    1  UNL1       -0.2682
     32 C         138.6239  139.3031  160.1428 C.2     1  UNL1        0.3045
     33 O         137.3304  139.9957  160.4543 O.2     1  UNL1       -0.2525
     34 N         139.1689  138.2721  161.0862 N.am    1  UNL1       -0.2887
     35 H         140.2215  139.1870  158.6833 H       1  UNL1        0.1564
     36 H         140.0179  137.8176  160.8817 H       1  UNL1        0.1510
     37 C         138.4203  137.9337  162.3412 C.3     1  UNL1        0.0910
     38 C         139.1697  137.6682  163.6131 C.3     1  UNL1        0.0230
     39 C         137.1929  143.7654  155.1137 C.3     1  UNL1        0.4186
     40 F         136.6479  144.7962  154.1702 F       1  UNL1       -0.1659
     41 F         136.2296  142.7545  154.5656 F       1  UNL1       -0.1659
     42 F         138.1561  144.7762  155.6618 F       1  UNL1       -0.1659
@<TRIPOS>BOND
     1    23    24    1
     2    24    22    1
     3    11    22    1
     4    11    12    1
     5    12    13    1
     6    13    17    1
     7    17    18    1
     8    17    19    1
     9    19    20    1
    10    19    21    1
    11    13    14    1
    12    14    15    1
    13    15    16    1
    14    16     5    1
    15     5     6    1
    16     6     7    1
    17     7     8    1
    18     8     1    1
    19     1     2   am
    20     2     3    2
    21     2    25    1
    22    25    26   ar
    23    26    27   ar
    24    27    39    1
    25    39    40    1
    26    39    41    1
    27    39    42    1
    28    27    28   ar
    29    28    29   ar
    30    29    30   ar
    31    30    31    1
    32    31    32   am
    33    32    33    2
    34    32    34   am
    35    34    37    1
    36    37    38    1
    37     8     9    1
    38     9    10    2
    39    16    11    1
    40     9     5   am
    41    30    25   ar
    42     1     4    1
    43    31    35    1
    44    34    36    1
@<TRIPOS>MOLECULE
*****
 42 44 0 0 0
SMALL
GASTEIGER

@<TRIPOS>ATOM
      1 N         139.7562  140.0146  160.1735 N.am    1  UNL1       -0.2947
      2 C         140.3299  138.6379  160.0135 C.2     1  UNL1        0.2473
      3 O         140.4042  137.7146  161.1933 O.2     1  UNL1       -0.2701
      4 H         139.7074  140.6207  159.3992 H       1  UNL1        0.1501
      5 N         139.1930  141.1857  163.8309 N.am    1  UNL1       -0.2798
      6 C         137.7836  141.1455  163.3192 C.3     1  UNL1        0.0956
      7 C         137.8230  140.7019  161.8869 C.3     1  UNL1        0.0505
      8 C         139.2568  140.4680  161.5133 C.3     1  UNL1        0.1507
      9 C         140.1035  140.7670  162.7148 C.2     1  UNL1        0.2435
     10 O         141.5983  140.6651  162.7875 O.2     1  UNL1       -0.2731
     11 C         139.8744  140.5182  166.2476 C.3     1  UNL1        0.0196
     12 C         140.2989  140.9087  167.6323 C.3     1  UNL1        0.0176
     13 C         140.4664  142.3569  167.9850 C.3     1  UNL1        0.0576
     14 C         140.2095  143.4148  166.9531 C.3     1  UNL1        0.0177
     15 C         139.7851  143.0244  165.5685 C.3     1  UNL1        0.0212
     16 C         139.6175  141.5761  165.2157 C.3     1  UNL1        0.0754
     17 N         140.8909  142.7473  169.3698 N.3     1  UNL1       -0.2741
     18 C         140.2878  143.9532  170.0271 C.3     1  UNL1        0.0896
     19 C         141.9184  141.9319  170.0972 C.3     1  UNL1        0.0576
     20 C         141.4992  141.0139  171.2070 C.3     1  UNL1        0.0173
     21 C         143.3653  142.0342  169.7147 C.3     1  UNL1        0.0173
     22 C         139.7069  139.0700  165.8949 C.3     1  UNL1        0.0017
     23 C         137.5357  138.3758  167.1416 C.3     1  UNL1        0.0000
     24 C         138.3385  138.4558  165.8770 C.3     1  UNL1        0.0001
     25 C         140.8293  138.1846  158.6737 C.ar    1  UNL1        0.0668
     26 C         139.8603  137.9446  157.5541 C.ar    1  UNL1        0.0096
     27 C         140.3597  137.4913  156.2142 C.ar    1  UNL1        0.0716
     28 C         141.8280  137.2779  155.9941 C.ar    1  UNL1        0.0051
     29 C         142.7970  137.5179  157.1137 C.ar    1  UNL1        0.0148
     30 C         142.2976  137.9713  158.4535 C.ar    1  UNL1        0.0559
     31 N         143.2666  138.2112  159.5731 N.am    1  UNL1       -0.2682
     32 C         143.5362  139.6093  160.0450 C.2     1  UNL1        0.3045
     33 O         142.8368  140.7675  159.3973 O.2     1  UNL1       -0.2525
     34 N         144.5052  139.8492  161.1646 N.am    1  UNL1       -0.2887
     35 H         143.7256  137.4511  159.9982 H       1  UNL1        0.1564
     36 H         144.9642  139.0890  161.5897 H       1  UNL1        0.1510
     37 C         144.7747  141.2473  161.6365 C.3     1  UNL1        0.0910
     38 C         145.2797  141.4847  163.0288 C.3     1  UNL1        0.0230
     39 C         139.3908  137.2513  155.0946 C.3     1  UNL1        0.4186
     40 F         138.4218  137.0113  153.9750 F       1  UNL1       -0.1659
     41 F         138.4969  138.3266  155.6377 F       1  UNL1       -0.1659
     42 F         140.2846  136.1760  154.5516 F       1  UNL1       -0.1659
@<TRIPOS>BOND
     1    23    24    1
     2    24    22    1
     3    11    22    1
     4    11    12    1
     5    12    13    1
     6    13    17    1
     7    17    18    1
     8    17    19    1
     9    19    20    1
    10    19    21    1
    11    13    14    1
    12    14    15    1
    13    15    16    1
    14    16     5    1
    15     5     6    1
    16     6     7    1
    17     7     8    1
    18     8     1    1
    19     1     2   am
    20     2     3    2
    21     2    25    1
    22    25    26   ar
    23    26    27   ar
    24    27    39    1
    25    39    40    1
    26    39    41    1
    27    39    42    1
    28    27    28   ar
    29    28    29   ar
    30    29    30   ar
    31    30    31    1
    32    31    32   am
    33    32    33    2
    34    32    34   am
    35    34    37    1
    36    37    38    1
    37     8     9    1
    38     9    10    2
    39    16    11    1
    40     9     5   am
    41    30    25   ar
    42     1     4    1
    43    31    35    1
    44    34    36    1
@<TRIPOS>MOLECULE
*****
 42 44 0 0 0
SMALL
GASTEIGER

@<TRIPOS>ATOM
      1 N         138.2023  141.0539  160.7815 N.am    1  UNL1       -0.2947
      2 C         139.2546  141.3731  159.7613 C.2     1  UNL1        0.2473
      3 O         140.6658  140.9087  159.9689 O.2     1  UNL1       -0.2701
      4 H         137.2761  141.3586  160.6452 H       1  UNL1        0.1501
      5 N         139.4519  139.6691  164.1853 N.am    1  UNL1       -0.2798
      6 C         138.7746  138.4599  163.6116 C.3     1  UNL1        0.0956
      7 C         138.2241  138.8315  162.2667 C.3     1  UNL1        0.0505
      8 C         138.5611  140.2703  162.0092 C.3     1  UNL1        0.1507
      9 C         139.3199  140.7880  163.1950 C.2     1  UNL1        0.2435
     10 O         139.8532  142.1801  163.3612 O.2     1  UNL1       -0.2731
     11 C         141.6278  139.5728  165.6018 C.3     1  UNL1        0.0196
     12 C         142.3162  139.6496  166.9323 C.3     1  UNL1        0.0176
     13 C         141.5170  139.8997  168.1768 C.3     1  UNL1        0.0576
     14 C         140.0296  140.0729  168.0909 C.3     1  UNL1        0.0177
     15 C         139.3412  139.9960  166.7604 C.3     1  UNL1        0.0212
     16 C         140.1404  139.7460  165.5159 C.3     1  UNL1        0.0754
     17 N         142.2055  139.9765  169.5073 N.3     1  UNL1       -0.2741
     18 C         142.6136  138.7182  170.2144 C.3     1  UNL1        0.0896
     19 C         142.4857  141.3117  170.1308 C.3     1  UNL1        0.0576
     20 C         143.6244  142.1496  169.6291 C.3     1  UNL1        0.0173
     21 C         141.6274  141.8091  171.2559 C.3     1  UNL1        0.0173
     22 C         142.4269  139.3227  164.3572 C.3     1  UNL1        0.0017
     23 C         145.0213  139.4562  164.3212 C.3     1  UNL1        0.0000
     24 C         143.6842  140.1006  164.1043 C.3     1  UNL1        0.0001
     25 C         138.8958  142.1566  158.5336 C.ar    1  UNL1        0.0668
     26 C         137.7359  141.7295  157.6837 C.ar    1  UNL1        0.0096
     27 C         137.3770  142.5130  156.4559 C.ar    1  UNL1        0.0716
     28 C         138.1781  143.7237  156.0782 C.ar    1  UNL1        0.0051
     29 C         139.3380  144.1508  156.9281 C.ar    1  UNL1        0.0148
     30 C         139.6968  143.3672  158.1558 C.ar    1  UNL1        0.0559
     31 N         140.8566  143.7943  159.0057 N.am    1  UNL1       -0.2682
     32 C         140.6132  144.4240  160.3452 C.2     1  UNL1        0.3045
     33 O         139.2100  144.6266  160.8348 O.2     1  UNL1       -0.2525
     34 N         141.7732  144.8511  161.1950 N.am    1  UNL1       -0.2887
     35 H         141.7777  143.6614  158.6843 H       1  UNL1        0.1564
     36 H         142.6942  144.7181  160.8736 H       1  UNL1        0.1510
     37 C         141.5298  145.4808  162.5345 C.3     1  UNL1        0.0910
     38 C         142.3894  145.1079  163.7058 C.3     1  UNL1        0.0230
     39 C         136.2172  142.0860  155.6061 C.3     1  UNL1        0.4186
     40 F         135.0574  141.6589  154.7562 F       1  UNL1       -0.1659
     41 F         135.7655  141.1538  156.6910 F       1  UNL1       -0.1659
     42 F         136.6689  143.0182  154.5211 F       1  UNL1       -0.1659
@<TRIPOS>BOND
     1    23    24    1
     2    24    22    1
     3    11    22    1
     4    11    12    1
     5    12    13    1
     6    13    17    1
     7    17    18    1
     8    17    19    1
     9    19    20    1
    10    19    21    1
    11    13    14    1
    12    14    15    1
    13    15    16    1
    14    16     5    1
    15     5     6    1
    16     6     7    1
    17     7     8    1
    18     8     1    1
    19     1     2   am
    20     2     3    2
    21     2    25    1
    22    25    26   ar
    23    26    27   ar
    24    27    39    1
    25    39    40    1
    26    39    41    1
    27    39    42    1
    28    27    28   ar
    29    28    29   ar
    30    29    30   ar
    31    30    31    1
    32    31    32   am
    33    32    33    2
    34    32    34   am
    35    34    37    1
    36    37    38    1
    37     8     9    1
    38     9    10    2
    39    16    11    1
    40     9     5   am
    41    30    25   ar
    42     1     4    1
    43    31    35    1
    44    34    36    1
@<TRIPOS>MOLECULE
*****
 42 44 0 0 0
SMALL
GASTEIGER

@<TRIPOS>ATOM
      1 N         141.3414  138.3888  159.2812 N.am    1  UNL1       -0.2947
      2 C         142.6382  138.3055  158.5319 C.2     1  UNL1        0.2473
      3 O         143.8190  139.1122  158.9844 O.2     1  UNL1       -0.2701
      4 H         140.5664  137.8593  158.9842 H       1  UNL1        0.1501
      5 N         141.1017  140.0501  162.7809 N.am    1  UNL1       -0.2798
      6 C         140.9926  141.2472  161.8838 C.3     1  UNL1        0.0956
      7 C         141.0692  140.7706  160.4636 C.3     1  UNL1        0.0505
      8 C         141.2255  139.2789  160.4830 C.3     1  UNL1        0.1507
      9 C         141.2456  138.8336  161.9152 C.2     1  UNL1        0.2435
     10 O         141.3852  137.4200  162.3971 O.2     1  UNL1       -0.2731
     11 C         139.7692  139.9076  165.0068 C.3     1  UNL1        0.0196
     12 C         139.7396  139.9240  166.5064 C.3     1  UNL1        0.0176
     13 C         141.0128  140.0993  167.2798 C.3     1  UNL1        0.0576
     14 C         142.3157  140.2582  166.5536 C.3     1  UNL1        0.0177
     15 C         142.3453  140.2418  165.0540 C.3     1  UNL1        0.0212
     16 C         141.0720  140.0665  164.2806 C.3     1  UNL1        0.0754
     17 N         140.9832  140.1157  168.7794 N.3     1  UNL1       -0.2741
     18 C         141.9944  139.3278  169.5582 C.3     1  UNL1        0.0896
     19 C         139.9423  140.9201  169.5002 C.3     1  UNL1        0.0576
     20 C         138.6837  140.2600  169.9802 C.3     1  UNL1        0.0173
     21 C         140.1599  142.3845  169.7412 C.3     1  UNL1        0.0173
     22 C         138.4960  139.7322  164.2333 C.3     1  UNL1        0.0017
     23 C         138.1190  142.3028  164.2384 C.3     1  UNL1        0.0000
     24 C         137.7359  140.9346  163.7574 C.3     1  UNL1        0.0001
     25 C         142.7541  137.4154  157.3301 C.ar    1  UNL1        0.0668
     26 C         142.6269  135.9286  157.4830 C.ar    1  UNL1        0.0096
     27 C         142.7428  135.0384  156.2812 C.ar    1  UNL1        0.0716
     28 C         142.9859  135.6352  154.9266 C.ar    1  UNL1        0.0051
     29 C         143.1131  137.1219  154.7738 C.ar    1  UNL1        0.0148
     30 C         142.9972  138.0120  155.9755 C.ar    1  UNL1        0.0559
     31 N         143.1244  139.4988  155.8227 N.am    1  UNL1       -0.2682
     32 C         144.4809  140.1264  155.6962 C.2     1  UNL1        0.3045
     33 O         145.7102  139.2673  155.7224 O.2     1  UNL1       -0.2525
     34 N         144.6079  141.6132  155.5433 N.am    1  UNL1       -0.2887
     35 H         142.3175  140.0627  155.8054 H       1  UNL1        0.1564
     36 H         143.8011  142.1771  155.5261 H       1  UNL1        0.1510
     37 C         145.9644  142.2409  155.4168 C.3     1  UNL1        0.0910
     38 C         146.8058  142.4614  156.6389 C.3     1  UNL1        0.0230
     39 C         142.6156  133.5517  156.4339 C.3     1  UNL1        0.4186
     40 F         142.4884  132.0650  156.5866 F       1  UNL1       -0.1659
     41 F         142.0106  133.4628  155.0641 F       1  UNL1       -0.1659
     42 F         143.2206  133.6406  157.8036 F       1  UNL1       -0.1659
@<TRIPOS>BOND
     1    23    24    1
     2    24    22    1
     3    11    22    1
     4    11    12    1
     5    12    13    1
     6    13    17    1
     7    17    18    1
     8    17    19    1
     9    19    20    1
    10    19    21    1
    11    13    14    1
    12    14    15    1
    13    15    16    1
    14    16     5    1
    15     5     6    1
    16     6     7    1
    17     7     8    1
    18     8     1    1
    19     1     2   am
    20     2     3    2
    21     2    25    1
    22    25    26   ar
    23    26    27   ar
    24    27    39    1
    25    39    40    1
    26    39    41    1
    27    39    42    1
    28    27    28   ar
    29    28    29   ar
    30    29    30   ar
    31    30    31    1
    32    31    32   am
    33    32    33    2
    34    32    34   am
    35    34    37    1
    36    37    38    1
    37     8     9    1
    38     9    10    2
    39    16    11    1
    40     9     5   am
    41    30    25   ar
    42     1     4    1
    43    31    35    1
    44    34    36    1
@<TRIPOS>MOLECULE
*****
 42 44 0 0 0
SMALL
GASTEIGER

@<TRIPOS>ATOM
      1 N         142.6089  137.6355  160.8306 N.am    1  UNL1       -0.2947
      2 C         142.6431  138.3403  159.5070 C.2     1  UNL1        0.2473
      3 O         143.1506  139.7492  159.4203 O.2     1  UNL1       -0.2701
      4 H         142.2758  136.7108  160.8875 H       1  UNL1        0.1501
      5 N         143.1437  139.3058  164.2933 N.am    1  UNL1       -0.2798
      6 C         144.4779  139.5404  163.6491 C.3     1  UNL1        0.0956
      7 C         144.4400  138.9432  162.2736 C.3     1  UNL1        0.0505
      8 C         143.0823  138.3396  162.0676 C.3     1  UNL1        0.1507
      9 C         142.2812  138.5636  163.3158 C.2     1  UNL1        0.2435
     10 O         140.8661  138.1229  163.5462 O.2     1  UNL1       -0.2731
     11 C         142.0928  141.0732  165.8812 C.3     1  UNL1        0.0196
     12 C         141.6915  141.5049  167.2605 C.3     1  UNL1        0.0176
     13 C         141.9400  140.6008  168.4313 C.3     1  UNL1        0.0576
     14 C         142.5897  139.2650  168.2228 C.3     1  UNL1        0.0177
     15 C         142.9909  138.8333  166.8435 C.3     1  UNL1        0.0212
     16 C         142.7425  139.7375  165.6727 C.3     1  UNL1        0.0754
     17 N         141.5387  141.0325  169.8108 N.3     1  UNL1       -0.2741
     18 C         142.5158  140.9260  170.9439 C.3     1  UNL1        0.0896
     19 C         140.1604  141.5706  170.0570 C.3     1  UNL1        0.0576
     20 C         138.9758  140.6521  170.0020 C.3     1  UNL1        0.0173
     21 C         139.9667  143.0272  170.3582 C.3     1  UNL1        0.0173
     22 C         141.8443  141.9774  164.7104 C.3     1  UNL1        0.0017
     23 C         144.1802  143.0759  165.0046 C.3     1  UNL1        0.0000
     24 C         142.8074  143.0847  164.4002 C.3     1  UNL1        0.0001
     25 C         142.1697  137.6362  158.2700 C.ar    1  UNL1        0.0668
     26 C         142.9420  136.4697  157.7290 C.ar    1  UNL1        0.0096
     27 C         142.4686  135.7655  156.4919 C.ar    1  UNL1        0.0716
     28 C         141.2229  136.2281  155.7960 C.ar    1  UNL1        0.0051
     29 C         140.4506  137.3946  156.3371 C.ar    1  UNL1        0.0148
     30 C         140.9240  138.0987  157.5740 C.ar    1  UNL1        0.0559
     31 N         140.1516  139.2652  158.1150 N.am    1  UNL1       -0.2682
     32 C         139.3757  139.1242  159.3910 C.2     1  UNL1        0.3045
     33 O         139.3721  137.8166  160.1259 O.2     1  UNL1       -0.2525
     34 N         138.6034  140.2908  159.9319 N.am    1  UNL1       -0.2887
     35 H         140.1540  140.1234  157.6327 H       1  UNL1        0.1564
     36 H         138.6058  141.1490  159.4495 H       1  UNL1        0.1510
     37 C         137.8274  140.1497  161.2079 C.3     1  UNL1        0.0910
     38 C         137.7372  141.3034  162.1622 C.3     1  UNL1        0.0230
     39 C         143.2409  134.5991  155.9509 C.3     1  UNL1        0.4186
     40 F         144.0131  133.4325  155.4099 F       1  UNL1       -0.1659
     41 F         142.1841  133.6637  156.4593 F       1  UNL1       -0.1659
     42 F         144.2976  135.5344  155.4425 F       1  UNL1       -0.1659
@<TRIPOS>BOND
     1    23    24    1
     2    24    22    1
     3    11    22    1
     4    11    12    1
     5    12    13    1
     6    13    17    1
     7    17    18    1
     8    17    19    1
     9    19    20    1
    10    19    21    1
    11    13    14    1
    12    14    15    1
    13    15    16    1
    14    16     5    1
    15     5     6    1
    16     6     7    1
    17     7     8    1
    18     8     1    1
    19     1     2   am
    20     2     3    2
    21     2    25    1
    22    25    26   ar
    23    26    27   ar
    24    27    39    1
    25    39    40    1
    26    39    41    1
    27    39    42    1
    28    27    28   ar
    29    28    29   ar
    30    29    30   ar
    31    30    31    1
    32    31    32   am
    33    32    33    2
    34    32    34   am
    35    34    37    1
    36    37    38    1
    37     8     9    1
    38     9    10    2
    39    16    11    1
    40     9     5   am
    41    30    25   ar
    42     1     4    1
    43    31    35    1
    44    34    36    1
@<TRIPOS>MOLECULE
*****
 42 44 0 0 0
SMALL
GASTEIGER

@<TRIPOS>ATOM
      1 N         139.7372  145.0557  159.6708 N.am    1  UNL1       -0.2947
      2 C         140.8134  145.1409  158.6295 C.2     1  UNL1        0.2473
      3 O         142.2560  145.1479  159.0406 O.2     1  UNL1       -0.2701
      4 H         138.7904  145.0511  159.4010 H       1  UNL1        0.1501
      5 N         140.8055  144.1239  163.2842 N.am    1  UNL1       -0.2798
      6 C         140.5289  145.5907  163.4328 C.3     1  UNL1        0.0956
      7 C         140.0950  146.1183  162.0974 C.3     1  UNL1        0.0505
      8 C         140.1035  144.9775  161.1233 C.3     1  UNL1        0.1507
      9 C         140.5425  143.7450  161.8568 C.2     1  UNL1        0.2435
     10 O         140.6924  142.3742  161.2665 O.2     1  UNL1       -0.2731
     11 C         140.2647  142.5888  165.3093 C.3     1  UNL1        0.0196
     12 C         140.7236  141.6635  166.3969 C.3     1  UNL1        0.0176
     13 C         142.1823  141.3477  166.5471 C.3     1  UNL1        0.0576
     14 C         143.1820  141.9574  165.6097 C.3     1  UNL1        0.0177
     15 C         142.7231  142.8828  164.5221 C.3     1  UNL1        0.0212
     16 C         141.2644  143.1985  164.3719 C.3     1  UNL1        0.0754
     17 N         142.6412  140.4223  167.6348 N.3     1  UNL1       -0.2741
     18 C         142.9212  138.9815  167.3252 C.3     1  UNL1        0.0896
     19 C         142.8202  140.9376  169.0321 C.3     1  UNL1        0.0576
     20 C         143.1869  142.3741  169.2605 C.3     1  UNL1        0.0173
     21 C         142.6325  140.0165  170.2010 C.3     1  UNL1        0.0173
     22 C         138.8060  142.9046  165.1591 C.3     1  UNL1        0.0017
     23 C         138.0664  140.7065  163.9881 C.3     1  UNL1        0.0000
     24 C         137.9892  142.1989  164.1175 C.3     1  UNL1        0.0001
     25 C         140.4471  145.2191  157.1770 C.ar    1  UNL1        0.0668
     26 C         140.1907  146.5521  156.5390 C.ar    1  UNL1        0.0096
     27 C         139.8244  146.6303  155.0864 C.ar    1  UNL1        0.0716
     28 C         139.7145  145.3754  154.2721 C.ar    1  UNL1        0.0051
     29 C         139.9709  144.0423  154.9102 C.ar    1  UNL1        0.0148
     30 C         140.3372  143.9642  156.3627 C.ar    1  UNL1        0.0559
     31 N         140.5936  142.6311  157.0008 N.am    1  UNL1       -0.2682
     32 C         139.5520  142.0090  157.8829 C.2     1  UNL1        0.3045
     33 O         138.2540  142.7200  158.1269 O.2     1  UNL1       -0.2525
     34 N         139.8086  140.6759  158.5209 N.am    1  UNL1       -0.2887
     35 H         141.4456  142.1644  156.8406 H       1  UNL1        0.1564
     36 H         140.6605  140.2093  158.3607 H       1  UNL1        0.1510
     37 C         138.7669  140.0539  159.4030 C.3     1  UNL1        0.0910
     38 C         139.1173  138.8734  160.2597 C.3     1  UNL1        0.0230
     39 C         139.5680  147.9633  154.4483 C.3     1  UNL1        0.4186
     40 F         139.3116  149.2963  153.8100 F       1  UNL1       -0.1659
     41 F         140.4140  147.5646  153.2754 F       1  UNL1       -0.1659
     42 F         138.7221  148.3621  155.6210 F       1  UNL1       -0.1659
@<TRIPOS>BOND
     1    23    24    1
     2    24    22    1
     3    11    22    1
     4    11    12    1
     5    12    13    1
     6    13    17    1
     7    17    18    1
     8    17    19    1
     9    19    20    1
    10    19    21    1
    11    13    14    1
    12    14    15    1
    13    15    16    1
    14    16     5    1
    15     5     6    1
    16     6     7    1
    17     7     8    1
    18     8     1    1
    19     1     2   am
    20     2     3    2
    21     2    25    1
    22    25    26   ar
    23    26    27   ar
    24    27    39    1
    25    39    40    1
    26    39    41    1
    27    39    42    1
    28    27    28   ar
    29    28    29   ar
    30    29    30   ar
    31    30    31    1
    32    31    32   am
    33    32    33    2
    34    32    34   am
    35    34    37    1
    36    37    38    1
    37     8     9    1
    38     9    10    2
    39    16    11    1
    40     9     5   am
    41    30    25   ar
    42     1     4    1
    43    31    35    1
    44    34    36    1
