@<TRIPOS>MOLECULE
*****
 34 36 0 0 0
SMALL
GASTEIGER

@<TRIPOS>ATOM
      1 C         142.1907  140.2684  167.2820 C.ar    1  UNL1        0.0092
      2 C         142.7818  138.9779  166.7970 C.ar    1  UNL1        0.0007
      3 C         143.6660  138.9665  165.5854 C.ar    1  UNL1        0.0031
      4 C         143.9591  140.2457  164.8588 C.ar    1  UNL1        0.0377
      5 C         143.3681  141.5361  165.3438 C.ar    1  UNL1        0.1501
      6 C         142.4839  141.5475  166.5554 C.ar    1  UNL1        0.0381
      7 C         137.9262  140.0622  170.3889 C.3     1  UNL1        0.0382
      8 C         139.3463  140.1850  169.9217 C.ar    1  UNL1        0.0078
      9 C         140.5453  140.4098  170.7947 C.ar    1  UNL1        0.0072
     10 C         141.7568  140.4683  169.9120 C.ar    1  UNL1        0.0593
     11 C         141.3065  140.2798  168.4937 C.ar    1  UNL1        0.0336
     12 S         139.8167  140.1047  168.4997 S.2     1  UNL1       -0.0911
     13 C         143.1703  140.6785  170.3678 C.2     1  UNL1        0.2432
     14 N         143.8138  139.6914  171.2959 N.am    1  UNL1       -0.3253
     15 O         143.9404  141.8759  169.8954 O.2     1  UNL1       -0.2704
     16 H         143.3084  138.9055  171.6059 H       1  UNL1        0.1453
     17 H         144.7415  139.8294  171.5950 H       1  UNL1        0.1453
     18 O         143.6612  142.8152  164.6173 O.3     1  UNL1       -0.4103
     19 C         142.6639  143.3706  163.6442 C.2     1  UNL1        0.4062
     20 O         142.2390  142.5558  162.4586 O.2     1  UNL1       -0.2260
     21 N         142.0916  144.7407  163.8566 N.am    1  UNL1       -0.2704
     22 H         142.3705  145.2755  164.6347 H       1  UNL1        0.1527
     23 C         141.0942  145.2960  162.8834 C.3     1  UNL1        0.0927
     24 C         139.6327  145.2885  163.2209 C.3     1  UNL1        0.0214
     25 C         139.1743  144.7857  164.5577 C.3     1  UNL1        0.0018
     26 C         137.8939  144.0121  164.6692 C.3     1  UNL1        0.0004
     27 C         137.8396  142.5826  164.2179 C.3     1  UNL1        0.0047
     28 C         139.1084  141.8464  163.9044 C.3     1  UNL1        0.0264
     29 C         139.2477  140.4000  164.2765 C.ar    1  UNL1       -0.0222
     30 C         140.3420  139.5719  163.6709 C.ar    1  UNL1       -0.0043
     31 C         140.4814  138.1254  164.0430 C.ar    1  UNL1       -0.0003
     32 C         139.5265  137.5072  165.0208 C.ar    1  UNL1       -0.0000
     33 C         138.4323  138.3354  165.6264 C.ar    1  UNL1       -0.0003
     34 C         138.2929  139.7818  165.2543 C.ar    1  UNL1       -0.0043
@<TRIPOS>BOND
     1     7     8    1
     2     8     9   ar
     3     9    10   ar
     4    10    13    1
     5    13    14   am
     6    13    15    2
     7    10    11   ar
     8    11     1    1
     9     1     2   ar
    10     2     3   ar
    11     3     4   ar
    12     4     5   ar
    13     5    18    1
    14    18    19    1
    15    19    20    2
    16    19    21   am
    17    21    23    1
    18    23    24    1
    19    24    25    1
    20    25    26    1
    21    26    27    1
    22    27    28    1
    23    28    29    1
    24    29    30   ar
    25    30    31   ar
    26    31    32   ar
    27    32    33   ar
    28    33    34   ar
    29     5     6   ar
    30    11    12   ar
    31    12     8   ar
    32     6     1   ar
    33    34    29   ar
    34    14    16    1
    35    14    17    1
    36    21    22    1
@<TRIPOS>MOLECULE
*****
 34 36 0 0 0
SMALL
GASTEIGER

@<TRIPOS>ATOM
      1 C         141.7086  141.7723  167.2377 C.ar    1  UNL1        0.0092
      2 C         142.8919  142.3234  166.4987 C.ar    1  UNL1        0.0007
      3 C         142.6859  143.1648  165.2742 C.ar    1  UNL1        0.0031
      4 C         141.2967  143.4552  164.7887 C.ar    1  UNL1        0.0377
      5 C         140.1134  142.9042  165.5276 C.ar    1  UNL1        0.1501
      6 C         140.3194  142.0627  166.7522 C.ar    1  UNL1        0.0381
      7 C         143.0974  137.7978  170.4245 C.3     1  UNL1        0.0382
      8 C         142.5528  139.1039  169.9271 C.ar    1  UNL1        0.0078
      9 C         141.9097  140.1679  170.7664 C.ar    1  UNL1        0.0072
     10 C         141.5152  141.2970  169.8610 C.ar    1  UNL1        0.0593
     11 C         141.9145  140.9308  168.4623 C.ar    1  UNL1        0.0336
     12 S         142.5558  139.5754  168.5031 S.2     1  UNL1       -0.0911
     13 C         140.8399  142.5689  170.2808 C.2     1  UNL1        0.2432
     14 N         139.4100  142.5449  170.7335 N.am    1  UNL1       -0.3253
     15 O         141.5944  143.8649  170.2479 O.2     1  UNL1       -0.2704
     16 H         138.9148  141.6944  170.7551 H       1  UNL1        0.1453
     17 H         138.9669  143.3798  171.0090 H       1  UNL1        0.1453
     18 O         138.7242  143.1946  165.0421 O.3     1  UNL1       -0.4103
     19 C         138.2367  142.5905  163.7586 C.2     1  UNL1        0.4062
     20 O         137.6848  143.4714  162.6771 O.2     1  UNL1       -0.2260
     21 N         138.3011  141.1056  163.5565 N.am    1  UNL1       -0.2704
     22 H         138.6634  140.5275  164.2662 H       1  UNL1        0.1527
     23 C         137.8136  140.5016  162.2729 C.3     1  UNL1        0.0927
     24 C         137.8664  139.0155  162.0757 C.3     1  UNL1        0.0214
     25 C         139.0863  138.2469  162.4893 C.3     1  UNL1        0.0018
     26 C         139.0980  137.5028  163.7916 C.3     1  UNL1        0.0004
     27 C         140.3278  137.5136  164.6506 C.3     1  UNL1        0.0047
     28 C         140.9258  138.8180  165.0876 C.3     1  UNL1        0.0264
     29 C         142.1770  139.3256  164.4344 C.ar    1  UNL1       -0.0222
     30 C         142.0870  140.1951  163.2155 C.ar    1  UNL1       -0.0043
     31 C         143.3382  140.7028  162.5622 C.ar    1  UNL1       -0.0003
     32 C         144.6795  140.3410  163.1279 C.ar    1  UNL1       -0.0000
     33 C         144.7695  139.4714  164.3469 C.ar    1  UNL1       -0.0003
     34 C         143.5183  138.9638  165.0001 C.ar    1  UNL1       -0.0043
@<TRIPOS>BOND
     1     7     8    1
     2     8     9   ar
     3     9    10   ar
     4    10    13    1
     5    13    14   am
     6    13    15    2
     7    10    11   ar
     8    11     1    1
     9     1     2   ar
    10     2     3   ar
    11     3     4   ar
    12     4     5   ar
    13     5    18    1
    14    18    19    1
    15    19    20    2
    16    19    21   am
    17    21    23    1
    18    23    24    1
    19    24    25    1
    20    25    26    1
    21    26    27    1
    22    27    28    1
    23    28    29    1
    24    29    30   ar
    25    30    31   ar
    26    31    32   ar
    27    32    33   ar
    28    33    34   ar
    29     5     6   ar
    30    11    12   ar
    31    12     8   ar
    32     6     1   ar
    33    34    29   ar
    34    14    16    1
    35    14    17    1
    36    21    22    1
@<TRIPOS>MOLECULE
*****
 34 36 0 0 0
SMALL
GASTEIGER

@<TRIPOS>ATOM
      1 C         142.2736  140.9196  167.2861 C.ar    1  UNL1        0.0092
      2 C         142.7340  142.3172  166.9951 C.ar    1  UNL1        0.0007
      3 C         143.6314  142.5823  165.8228 C.ar    1  UNL1        0.0031
      4 C         144.0684  141.4498  164.9415 C.ar    1  UNL1        0.0377
      5 C         143.6080  140.0522  165.2326 C.ar    1  UNL1        0.1501
      6 C         142.7106  139.7871  166.4049 C.ar    1  UNL1        0.0381
      7 C         137.9860  139.9383  170.2075 C.3     1  UNL1        0.0382
      8 C         139.4054  140.2034  169.8013 C.ar    1  UNL1        0.0078
      9 C         140.5851  140.2893  170.7238 C.ar    1  UNL1        0.0072
     10 C         141.8031  140.5681  169.8939 C.ar    1  UNL1        0.0593
     11 C         141.3762  140.6544  168.4585 C.ar    1  UNL1        0.0336
     12 S         139.8943  140.4290  168.4013 S.2     1  UNL1       -0.0911
     13 C         143.2024  140.7318  170.4089 C.2     1  UNL1        0.2432
     14 N         143.8120  139.6694  171.2746 N.am    1  UNL1       -0.3253
     15 O         143.9920  141.9580  170.0583 O.2     1  UNL1       -0.2704
     16 H         143.2938  138.8646  171.5048 H       1  UNL1        0.1453
     17 H         144.7304  139.7768  171.6127 H       1  UNL1        0.1453
     18 O         144.0450  138.9198  164.3514 O.3     1  UNL1       -0.4103
     19 C         143.4958  138.7963  162.9611 C.2     1  UNL1        0.4062
     20 O         144.2207  139.4275  161.8094 O.2     1  UNL1       -0.2260
     21 N         142.2216  138.0417  162.7223 N.am    1  UNL1       -0.2704
     22 H         141.7458  137.6275  163.4781 H       1  UNL1        0.1527
     23 C         141.6723  137.9183  161.3319 C.3     1  UNL1        0.0927
     24 C         140.3912  138.6082  160.9675 C.3     1  UNL1        0.0214
     25 C         139.0777  138.0301  161.4038 C.3     1  UNL1        0.0018
     26 C         138.7307  137.9728  162.8620 C.3     1  UNL1        0.0004
     27 C         138.4851  139.2407  163.6249 C.3     1  UNL1        0.0047
     28 C         139.5741  139.8292  164.4721 C.3     1  UNL1        0.0264
     29 C         139.9820  141.2600  164.2819 C.ar    1  UNL1       -0.0222
     30 C         140.9020  141.6345  163.1579 C.ar    1  UNL1       -0.0043
     31 C         141.3099  143.0654  162.9676 C.ar    1  UNL1       -0.0003
     32 C         140.7979  144.1218  163.9013 C.ar    1  UNL1       -0.0000
     33 C         139.8779  143.7472  165.0254 C.ar    1  UNL1       -0.0003
     34 C         139.4700  142.3164  165.2156 C.ar    1  UNL1       -0.0043
@<TRIPOS>BOND
     1     7     8    1
     2     8     9   ar
     3     9    10   ar
     4    10    13    1
     5    13    14   am
     6    13    15    2
     7    10    11   ar
     8    11     1    1
     9     1     2   ar
    10     2     3   ar
    11     3     4   ar
    12     4     5   ar
    13     5    18    1
    14    18    19    1
    15    19    20    2
    16    19    21   am
    17    21    23    1
    18    23    24    1
    19    24    25    1
    20    25    26    1
    21    26    27    1
    22    27    28    1
    23    28    29    1
    24    29    30   ar
    25    30    31   ar
    26    31    32   ar
    27    32    33   ar
    28    33    34   ar
    29     5     6   ar
    30    11    12   ar
    31    12     8   ar
    32     6     1   ar
    33    34    29   ar
    34    14    16    1
    35    14    17    1
    36    21    22    1
@<TRIPOS>MOLECULE
*****
 34 36 0 0 0
SMALL
GASTEIGER

@<TRIPOS>ATOM
      1 C         140.4277  141.3920  167.4699 C.ar    1  UNL1        0.0092
      2 C         139.9151  139.9824  167.4839 C.ar    1  UNL1        0.0007
      3 C         138.9859  139.5116  166.4046 C.ar    1  UNL1        0.0031
      4 C         138.5694  140.4503  165.3113 C.ar    1  UNL1        0.0377
      5 C         139.0819  141.8599  165.2973 C.ar    1  UNL1        0.1501
      6 C         140.0111  142.3308  166.3766 C.ar    1  UNL1        0.0381
      7 C         144.7999  142.8299  170.0578 C.3     1  UNL1        0.0382
      8 C         143.3665  142.5239  169.7387 C.ar    1  UNL1        0.0078
      9 C         142.2068  142.6514  170.6815 C.ar    1  UNL1        0.0072
     10 C         140.9648  142.2430  169.9463 C.ar    1  UNL1        0.0593
     11 C         141.3569  141.8630  168.5492 C.ar    1  UNL1        0.0336
     12 S         142.8412  142.0366  168.4209 S.2     1  UNL1       -0.0911
     13 C         139.5747  142.2188  170.5094 C.2     1  UNL1        0.2432
     14 N         139.0379  143.4175  171.2340 N.am    1  UNL1       -0.3253
     15 O         138.7212  140.9958  170.3479 O.2     1  UNL1       -0.2704
     16 H         139.5980  144.2201  171.3400 H       1  UNL1        0.1453
     17 H         138.1256  143.4015  171.6035 H       1  UNL1        0.1453
     18 O         138.6654  142.7987  164.2041 O.3     1  UNL1       -0.4103
     19 C         139.6728  143.7194  163.5818 C.2     1  UNL1        0.4062
     20 O         139.4120  145.1959  163.5364 O.2     1  UNL1       -0.2260
     21 N         140.9410  143.1638  163.0049 N.am    1  UNL1       -0.2704
     22 H         141.1122  142.1947  163.0347 H       1  UNL1        0.1527
     23 C         141.9484  144.0846  162.3826 C.3     1  UNL1        0.0927
     24 C         143.2632  143.5443  161.9036 C.3     1  UNL1        0.0214
     25 C         144.4658  143.5952  162.7986 C.3     1  UNL1        0.0018
     26 C         144.5068  142.7658  164.0478 C.3     1  UNL1        0.0004
     27 C         144.2272  141.2936  163.9801 C.3     1  UNL1        0.0047
     28 C         143.2032  140.6820  164.8897 C.3     1  UNL1        0.0264
     29 C         142.3013  139.5966  164.3814 C.ar    1  UNL1       -0.0222
     30 C         142.2131  138.2905  165.1138 C.ar    1  UNL1       -0.0043
     31 C         141.3112  137.2050  164.6055 C.ar    1  UNL1       -0.0003
     32 C         140.4975  137.4256  163.3648 C.ar    1  UNL1       -0.0000
     33 C         140.5858  138.7317  162.6324 C.ar    1  UNL1       -0.0003
     34 C         141.4876  139.8172  163.1407 C.ar    1  UNL1       -0.0043
@<TRIPOS>BOND
     1     7     8    1
     2     8     9   ar
     3     9    10   ar
     4    10    13    1
     5    13    14   am
     6    13    15    2
     7    10    11   ar
     8    11     1    1
     9     1     2   ar
    10     2     3   ar
    11     3     4   ar
    12     4     5   ar
    13     5    18    1
    14    18    19    1
    15    19    20    2
    16    19    21   am
    17    21    23    1
    18    23    24    1
    19    24    25    1
    20    25    26    1
    21    26    27    1
    22    27    28    1
    23    28    29    1
    24    29    30   ar
    25    30    31   ar
    26    31    32   ar
    27    32    33   ar
    28    33    34   ar
    29     5     6   ar
    30    11    12   ar
    31    12     8   ar
    32     6     1   ar
    33    34    29   ar
    34    14    16    1
    35    14    17    1
    36    21    22    1
@<TRIPOS>MOLECULE
*****
 34 36 0 0 0
SMALL
GASTEIGER

@<TRIPOS>ATOM
      1 C         139.8232  139.9973  164.1451 C.ar    1  UNL1        0.0092
      2 C         139.0898  138.8114  164.6980 C.ar    1  UNL1        0.0007
      3 C         139.7715  137.4776  164.7759 C.ar    1  UNL1        0.0031
      4 C         141.1867  137.3297  164.3011 C.ar    1  UNL1        0.0377
      5 C         141.9201  138.5156  163.7483 C.ar    1  UNL1        0.1501
      6 C         141.2384  139.8494  163.6703 C.ar    1  UNL1        0.0381
      7 C         138.1492  144.8593  165.3452 C.3     1  UNL1        0.0382
      8 C         138.3720  143.5660  164.6187 C.ar    1  UNL1        0.0078
      9 C         137.8128  143.2016  163.2754 C.ar    1  UNL1        0.0072
     10 C         138.2883  141.8204  162.9345 C.ar    1  UNL1        0.0593
     11 C         139.1415  141.3312  164.0671 C.ar    1  UNL1        0.0336
     12 S         139.1931  142.4100  165.1080 S.2     1  UNL1       -0.0911
     13 C         137.9672  141.0617  161.6810 C.2     1  UNL1        0.2432
     14 N         137.2384  139.7532  161.7622 N.am    1  UNL1       -0.3253
     15 O         138.3748  141.6115  160.3463 O.2     1  UNL1       -0.2704
     16 H         136.9708  139.3923  162.6382 H       1  UNL1        0.1453
     17 H         137.0276  139.2553  160.9395 H       1  UNL1        0.1453
     18 O         143.3353  138.3677  163.2735 O.3     1  UNL1       -0.4103
     19 C         144.2644  139.5448  163.3068 C.2     1  UNL1        0.4062
     20 O         145.2110  139.7208  164.4571 O.2     1  UNL1       -0.2260
     21 N         144.2471  140.5459  162.1899 N.am    1  UNL1       -0.2704
     22 H         143.6258  140.4304  161.4349 H       1  UNL1        0.1527
     23 C         145.1763  141.7230  162.2233 C.3     1  UNL1        0.0927
     24 C         144.7006  143.0389  162.7637 C.3     1  UNL1        0.0214
     25 C         144.6002  143.2490  164.2455 C.3     1  UNL1        0.0018
     26 C         143.3160  142.9488  164.9602 C.3     1  UNL1        0.0004
     27 C         143.3443  142.4333  166.3686 C.3     1  UNL1        0.0047
     28 C         142.5917  141.1859  166.7260 C.3     1  UNL1        0.0264
     29 C         141.5170  141.2319  167.7713 C.ar    1  UNL1       -0.0222
     30 C         141.3840  142.4345  168.6578 C.ar    1  UNL1       -0.0043
     31 C         140.3092  142.4806  169.7032 C.ar    1  UNL1       -0.0003
     32 C         139.3674  141.3240  169.8620 C.ar    1  UNL1       -0.0000
     33 C         139.5004  140.1213  168.9754 C.ar    1  UNL1       -0.0003
     34 C         140.5752  140.0753  167.9301 C.ar    1  UNL1       -0.0043
@<TRIPOS>BOND
     1     7     8    1
     2     8     9   ar
     3     9    10   ar
     4    10    13    1
     5    13    14   am
     6    13    15    2
     7    10    11   ar
     8    11     1    1
     9     1     2   ar
    10     2     3   ar
    11     3     4   ar
    12     4     5   ar
    13     5    18    1
    14    18    19    1
    15    19    20    2
    16    19    21   am
    17    21    23    1
    18    23    24    1
    19    24    25    1
    20    25    26    1
    21    26    27    1
    22    27    28    1
    23    28    29    1
    24    29    30   ar
    25    30    31   ar
    26    31    32   ar
    27    32    33   ar
    28    33    34   ar
    29     5     6   ar
    30    11    12   ar
    31    12     8   ar
    32     6     1   ar
    33    34    29   ar
    34    14    16    1
    35    14    17    1
    36    21    22    1
@<TRIPOS>MOLECULE
*****
 34 36 0 0 0
SMALL
GASTEIGER

@<TRIPOS>ATOM
      1 C         141.8341  142.5444  163.5485 C.ar    1  UNL1        0.0092
      2 C         143.1138  142.7862  162.8043 C.ar    1  UNL1        0.0007
      3 C         144.4070  142.9045  163.5549 C.ar    1  UNL1        0.0031
      4 C         144.4206  142.7810  165.0498 C.ar    1  UNL1        0.0377
      5 C         143.1409  142.5392  165.7940 C.ar    1  UNL1        0.1501
      6 C         141.8477  142.4209  165.0433 C.ar    1  UNL1        0.0381
      7 C         137.9136  140.6395  160.5682 C.3     1  UNL1        0.0382
      8 C         138.7387  141.5505  161.4280 C.ar    1  UNL1        0.0078
      9 C         138.3625  142.9376  161.8575 C.ar    1  UNL1        0.0072
     10 C         139.4763  143.4787  162.7042 C.ar    1  UNL1        0.0593
     11 C         140.5408  142.4261  162.7978 C.ar    1  UNL1        0.0336
     12 S         140.0850  141.2344  162.0091 S.2     1  UNL1       -0.0911
     13 C         139.5181  144.8344  163.3446 C.2     1  UNL1        0.2432
     14 N         140.0658  146.0062  162.5851 N.am    1  UNL1       -0.3253
     15 O         139.0123  145.0184  164.7447 O.2     1  UNL1       -0.2704
     16 H         140.3978  145.8855  161.6661 H       1  UNL1        0.1453
     17 H         140.0932  146.8960  163.0055 H       1  UNL1        0.1453
     18 O         143.1544  142.4158  167.2888 O.3     1  UNL1       -0.4103
     19 C         142.2431  141.4376  167.9689 C.2     1  UNL1        0.4062
     20 O         142.7915  140.1472  168.5020 O.2     1  UNL1       -0.2260
     21 N         140.7833  141.7496  168.1158 N.am    1  UNL1       -0.2704
     22 H         140.4233  142.5965  167.7659 H       1  UNL1        0.1527
     23 C         139.8719  140.7713  168.7959 C.3     1  UNL1        0.0927
     24 C         139.1532  139.7304  167.9897 C.3     1  UNL1        0.0214
     25 C         139.2079  139.7725  166.4913 C.3     1  UNL1        0.0018
     26 C         138.6615  138.6293  165.6885 C.3     1  UNL1        0.0004
     27 C         139.5962  137.6275  165.0776 C.3     1  UNL1        0.0047
     28 C         140.4080  137.9973  163.8717 C.3     1  UNL1        0.0264
     29 C         141.8416  138.4091  164.0302 C.ar    1  UNL1       -0.0222
     30 C         142.6606  138.7547  162.8220 C.ar    1  UNL1       -0.0043
     31 C         144.0943  139.1664  162.9805 C.ar    1  UNL1       -0.0003
     32 C         144.7090  139.2325  164.3472 C.ar    1  UNL1       -0.0000
     33 C         143.8899  138.8869  165.5554 C.ar    1  UNL1       -0.0003
     34 C         142.4563  138.4752  165.3969 C.ar    1  UNL1       -0.0043
@<TRIPOS>BOND
     1     7     8    1
     2     8     9   ar
     3     9    10   ar
     4    10    13    1
     5    13    14   am
     6    13    15    2
     7    10    11   ar
     8    11     1    1
     9     1     2   ar
    10     2     3   ar
    11     3     4   ar
    12     4     5   ar
    13     5    18    1
    14    18    19    1
    15    19    20    2
    16    19    21   am
    17    21    23    1
    18    23    24    1
    19    24    25    1
    20    25    26    1
    21    26    27    1
    22    27    28    1
    23    28    29    1
    24    29    30   ar
    25    30    31   ar
    26    31    32   ar
    27    32    33   ar
    28    33    34   ar
    29     5     6   ar
    30    11    12   ar
    31    12     8   ar
    32     6     1   ar
    33    34    29   ar
    34    14    16    1
    35    14    17    1
    36    21    22    1
@<TRIPOS>MOLECULE
*****
 34 36 0 0 0
SMALL
GASTEIGER

@<TRIPOS>ATOM
      1 C         142.6768  140.9882  162.1349 C.ar    1  UNL1        0.0092
      2 C         143.7961  140.6836  161.1839 C.ar    1  UNL1        0.0007
      3 C         144.1405  139.2595  160.8625 C.ar    1  UNL1        0.0031
      4 C         143.3657  138.1400  161.4921 C.ar    1  UNL1        0.0377
      5 C         142.2464  138.4446  162.4430 C.ar    1  UNL1        0.1501
      6 C         141.9019  139.8687  162.7644 C.ar    1  UNL1        0.0381
      7 C         140.3694  145.7370  162.0578 C.3     1  UNL1        0.0382
      8 C         141.2718  144.5951  162.4209 C.ar    1  UNL1        0.0078
      9 C         142.3328  144.6124  163.4811 C.ar    1  UNL1        0.0072
     10 C         142.9882  143.2634  163.5029 C.ar    1  UNL1        0.0593
     11 C         142.3323  142.4123  162.4563 C.ar    1  UNL1        0.0336
     12 S         141.2715  143.2353  161.7876 S.2     1  UNL1       -0.0911
     13 C         144.1038  142.8398  164.4119 C.2     1  UNL1        0.2432
     14 N         143.9501  142.9688  165.8984 N.am    1  UNL1       -0.3253
     15 O         145.3730  142.2872  163.8343 O.2     1  UNL1       -0.2704
     16 H         143.1170  143.3315  166.2775 H       1  UNL1        0.1453
     17 H         144.6823  142.6908  166.4949 H       1  UNL1        0.1453
     18 O         141.4715  137.3251  163.0726 O.3     1  UNL1       -0.4103
     19 C         140.0963  137.5775  163.6157 C.2     1  UNL1        0.4062
     20 O         138.9718  137.9160  162.6824 O.2     1  UNL1       -0.2260
     21 N         139.8455  137.4914  165.0920 N.am    1  UNL1       -0.2704
     22 H         140.5835  137.2693  165.7046 H       1  UNL1        0.1527
     23 C         138.4701  137.7438  165.6351 C.3     1  UNL1        0.0927
     24 C         138.1201  139.0910  166.1942 C.3     1  UNL1        0.0214
     25 C         138.5989  139.4834  167.5605 C.3     1  UNL1        0.0018
     26 C         140.0442  139.8183  167.7813 C.3     1  UNL1        0.0004
     27 C         140.5592  141.1837  167.4343 C.3     1  UNL1        0.0047
     28 C         140.7430  141.5731  165.9974 C.3     1  UNL1        0.0264
     29 C         139.7157  142.4263  165.3142 C.ar    1  UNL1       -0.0222
     30 C         139.5372  143.8581  165.7242 C.ar    1  UNL1       -0.0043
     31 C         138.5099  144.7113  165.0411 C.ar    1  UNL1       -0.0003
     32 C         137.6611  144.1327  163.9480 C.ar    1  UNL1       -0.0000
     33 C         137.8396  142.7009  163.5380 C.ar    1  UNL1       -0.0003
     34 C         138.8669  141.8477  164.2212 C.ar    1  UNL1       -0.0043
@<TRIPOS>BOND
     1     7     8    1
     2     8     9   ar
     3     9    10   ar
     4    10    13    1
     5    13    14   am
     6    13    15    2
     7    10    11   ar
     8    11     1    1
     9     1     2   ar
    10     2     3   ar
    11     3     4   ar
    12     4     5   ar
    13     5    18    1
    14    18    19    1
    15    19    20    2
    16    19    21   am
    17    21    23    1
    18    23    24    1
    19    24    25    1
    20    25    26    1
    21    26    27    1
    22    27    28    1
    23    28    29    1
    24    29    30   ar
    25    30    31   ar
    26    31    32   ar
    27    32    33   ar
    28    33    34   ar
    29     5     6   ar
    30    11    12   ar
    31    12     8   ar
    32     6     1   ar
    33    34    29   ar
    34    14    16    1
    35    14    17    1
    36    21    22    1
@<TRIPOS>MOLECULE
*****
 34 36 0 0 0
SMALL
GASTEIGER

@<TRIPOS>ATOM
      1 C         140.2199  142.5919  163.7371 C.ar    1  UNL1        0.0092
      2 C         139.0274  142.9925  164.5540 C.ar    1  UNL1        0.0007
      3 C         137.6934  142.3575  164.2950 C.ar    1  UNL1        0.0031
      4 C         137.5519  141.3218  163.2192 C.ar    1  UNL1        0.0377
      5 C         138.7445  140.9212  162.4023 C.ar    1  UNL1        0.1501
      6 C         140.0785  141.5562  162.6613 C.ar    1  UNL1        0.0381
      7 C         144.9713  143.6350  165.7908 C.3     1  UNL1        0.0382
      8 C         143.7379  143.7064  164.9400 C.ar    1  UNL1        0.0078
      9 C         143.4758  144.7019  163.8490 C.ar    1  UNL1        0.0072
     10 C         142.1261  144.4056  163.2656 C.ar    1  UNL1        0.0593
     11 C         141.5540  143.2269  163.9961 C.ar    1  UNL1        0.0336
     12 S         142.5502  142.7948  165.0309 S.2     1  UNL1       -0.0911
     13 C         141.4646  145.1561  162.1480 C.2     1  UNL1        0.2432
     14 N         140.4247  146.1931  162.4533 N.am    1  UNL1       -0.3253
     15 O         141.8429  144.8696  160.7251 O.2     1  UNL1       -0.2704
     16 H         140.1763  146.3812  163.3872 H       1  UNL1        0.1453
     17 H         139.9905  146.6857  161.7197 H       1  UNL1        0.1453
     18 O         138.6030  139.8855  161.3265 O.3     1  UNL1       -0.4103
     19 C         139.7497  138.9719  161.0095 C.2     1  UNL1        0.4062
     20 O         139.7827  137.5844  161.5786 O.2     1  UNL1       -0.2260
     21 N         140.8634  139.4458  160.1235 N.am    1  UNL1       -0.2704
     22 H         140.8418  140.3565  159.7500 H       1  UNL1        0.1527
     23 C         142.0101  138.5322  159.8065 C.3     1  UNL1        0.0927
     24 C         143.3839  138.8471  160.3197 C.3     1  UNL1        0.0214
     25 C         143.8499  138.2654  161.6214 C.3     1  UNL1        0.0018
     26 C         142.9351  138.2587  162.8101 C.3     1  UNL1        0.0004
     27 C         143.2428  139.1213  163.9981 C.3     1  UNL1        0.0047
     28 C         142.6850  138.7691  165.3453 C.3     1  UNL1        0.0264
     29 C         141.2146  138.9069  165.6076 C.ar    1  UNL1       -0.0222
     30 C         140.7216  139.9151  166.6028 C.ar    1  UNL1       -0.0043
     31 C         139.2511  140.0529  166.8651 C.ar    1  UNL1       -0.0003
     32 C         138.2737  139.1825  166.1323 C.ar    1  UNL1       -0.0000
     33 C         138.7668  138.1742  165.1371 C.ar    1  UNL1       -0.0003
     34 C         140.2372  138.0364  164.8748 C.ar    1  UNL1       -0.0043
@<TRIPOS>BOND
     1     7     8    1
     2     8     9   ar
     3     9    10   ar
     4    10    13    1
     5    13    14   am
     6    13    15    2
     7    10    11   ar
     8    11     1    1
     9     1     2   ar
    10     2     3   ar
    11     3     4   ar
    12     4     5   ar
    13     5    18    1
    14    18    19    1
    15    19    20    2
    16    19    21   am
    17    21    23    1
    18    23    24    1
    19    24    25    1
    20    25    26    1
    21    26    27    1
    22    27    28    1
    23    28    29    1
    24    29    30   ar
    25    30    31   ar
    26    31    32   ar
    27    32    33   ar
    28    33    34   ar
    29     5     6   ar
    30    11    12   ar
    31    12     8   ar
    32     6     1   ar
    33    34    29   ar
    34    14    16    1
    35    14    17    1
    36    21    22    1
@<TRIPOS>MOLECULE
*****
 34 36 0 0 0
SMALL
GASTEIGER

@<TRIPOS>ATOM
      1 C         139.4337  139.6282  165.0142 C.ar    1  UNL1        0.0092
      2 C         138.9205  138.2991  164.5451 C.ar    1  UNL1        0.0007
      3 C         138.1953  137.3962  165.4985 C.ar    1  UNL1        0.0031
      4 C         137.9833  137.8225  166.9209 C.ar    1  UNL1        0.0377
      5 C         138.4965  139.1516  167.3900 C.ar    1  UNL1        0.1501
      6 C         139.2216  140.0545  166.4367 C.ar    1  UNL1        0.0381
      7 C         142.7027  141.3741  161.2530 C.3     1  UNL1        0.0382
      8 C         141.6615  141.3336  162.3320 C.ar    1  UNL1        0.0078
      9 C         140.8882  142.5076  162.8557 C.ar    1  UNL1        0.0072
     10 C         139.9596  142.0115  163.9241 C.ar    1  UNL1        0.0593
     11 C         140.1589  140.5311  164.0609 C.ar    1  UNL1        0.0336
     12 S         141.2107  140.1122  163.0769 S.2     1  UNL1       -0.0911
     13 C         139.0002  142.8489  164.7167 C.2     1  UNL1        0.2432
     14 N         139.5187  143.8880  165.6661 N.am    1  UNL1       -0.3253
     15 O         137.5221  142.6473  164.5598 O.2     1  UNL1       -0.2704
     16 H         140.4888  144.0203  165.7691 H       1  UNL1        0.1453
     17 H         138.8890  144.4376  166.1863 H       1  UNL1        0.1453
     18 O         138.2844  139.5779  168.8125 O.3     1  UNL1       -0.4103
     19 C         139.3954  140.2428  169.5697 C.2     1  UNL1        0.4062
     20 O         140.6972  139.5262  169.7748 O.2     1  UNL1       -0.2260
     21 N         139.2048  141.6244  170.1219 N.am    1  UNL1       -0.2704
     22 H         138.3505  142.0948  169.9872 H       1  UNL1        0.1527
     23 C         140.3159  142.2894  170.8791 C.3     1  UNL1        0.0927
     24 C         141.2624  143.2101  170.1675 C.3     1  UNL1        0.0214
     25 C         142.7323  142.9116  170.1553 C.3     1  UNL1        0.0018
     26 C         143.3409  142.1875  168.9911 C.3     1  UNL1        0.0004
     27 C         142.4649  141.6694  167.8891 C.3     1  UNL1        0.0047
     28 C         142.5055  142.3115  166.5341 C.3     1  UNL1        0.0264
     29 C         143.5343  141.8814  165.5308 C.ar    1  UNL1       -0.0222
     30 C         144.2721  142.9094  164.7254 C.ar    1  UNL1       -0.0043
     31 C         145.3010  142.4793  163.7221 C.ar    1  UNL1       -0.0003
     32 C         145.5920  141.0212  163.5243 C.ar    1  UNL1       -0.0000
     33 C         144.8542  139.9931  164.3298 C.ar    1  UNL1       -0.0003
     34 C         143.8254  140.4232  165.3331 C.ar    1  UNL1       -0.0043
@<TRIPOS>BOND
     1     7     8    1
     2     8     9   ar
     3     9    10   ar
     4    10    13    1
     5    13    14   am
     6    13    15    2
     7    10    11   ar
     8    11     1    1
     9     1     2   ar
    10     2     3   ar
    11     3     4   ar
    12     4     5   ar
    13     5    18    1
    14    18    19    1
    15    19    20    2
    16    19    21   am
    17    21    23    1
    18    23    24    1
    19    24    25    1
    20    25    26    1
    21    26    27    1
    22    27    28    1
    23    28    29    1
    24    29    30   ar
    25    30    31   ar
    26    31    32   ar
    27    32    33   ar
    28    33    34   ar
    29     5     6   ar
    30    11    12   ar
    31    12     8   ar
    32     6     1   ar
    33    34    29   ar
    34    14    16    1
    35    14    17    1
    36    21    22    1
