@<TRIPOS>MOLECULE
*****
 33 35 0 0 0
SMALL
GASTEIGER

@<TRIPOS>ATOM
      1 C         137.8566  139.9426  163.7611 C.ar    1  UNL1        0.1409
      2 N         137.9171  140.0195  165.2579 N.ar    1  UNL1       -0.1986
      3 C         138.4560  138.8633  166.0471 C.ar    1  UNL1        0.2181
      4 N         138.9344  137.6303  165.3395 N.ar    1  UNL1       -0.2120
      5 C         138.8739  137.5534  163.8426 C.ar    1  UNL1        0.1091
      6 C         138.3350  138.7095  163.0535 C.ar    1  UNL1        0.1040
      7 C         138.2745  138.6327  161.5566 C.2     1  UNL1        0.2470
      8 N         139.3049  137.8442  160.8039 N.am    1  UNL1       -0.3252
      9 O         137.1835  139.3442  160.8126 O.2     1  UNL1       -0.2702
     10 H         140.0209  137.3772  161.2922 H       1  UNL1        0.1453
     11 H         139.2651  137.7938  159.8215 H       1  UNL1        0.1453
     12 N         137.3177  141.0988  162.9719 N.pl3   1  UNL1       -0.2977
     13 H         136.5640  140.9637  162.3530 H       1  UNL1        0.1536
     14 C         138.4966  145.1913  165.9486 C.3     1  UNL1        0.0311
     15 C         138.5165  144.5071  164.6139 C.ar    1  UNL1       -0.0206
     16 C         139.1457  145.1848  163.4330 C.ar    1  UNL1       -0.0042
     17 C         139.1656  144.5005  162.0983 C.ar    1  UNL1        0.0009
     18 C         138.5563  143.1385  161.9446 C.ar    1  UNL1        0.0146
     19 C         137.9270  142.4608  163.1255 C.ar    1  UNL1        0.0491
     20 C         137.9071  143.1451  164.4602 C.ar    1  UNL1        0.0104
     21 N         138.5165  138.9402  167.5439 N.pl3   1  UNL1       -0.3031
     22 H         138.0069  138.2995  168.0907 H       1  UNL1        0.1496
     23 C         139.3536  139.9933  168.2075 C.3     1  UNL1        0.0913
     24 C         140.4918  140.6260  167.4632 C.3     1  UNL1        0.0874
     25 C         141.3288  141.6791  168.1269 C.3     1  UNL1        0.2656
     26 F         142.3996  142.7106  168.3255 F       1  UNL1       -0.2043
     27 F         142.0019  141.6170  166.7878 F       1  UNL1       -0.2043
     28 C         141.0276  142.0995  169.5349 C.3     1  UNL1        0.0680
     29 C         139.8893  141.4667  170.2792 C.3     1  UNL1        0.0228
     30 C         139.0523  140.4136  169.6156 C.3     1  UNL1        0.0693
     31 N         137.9140  139.7809  170.3599 N.3     1  UNL1       -0.3209
     32 H         137.4578  139.0921  169.7618 H       1  UNL1        0.1189
     33 H         137.2407  140.4993  170.6261 H       1  UNL1        0.1189
@<TRIPOS>BOND
     1    14    15    1
     2    15    16   ar
     3    16    17   ar
     4    17    18   ar
     5    18    19   ar
     6    19    12    1
     7    12     1    1
     8     1     2   ar
     9     2     3   ar
    10     3    21    1
    11    23    21    1
    12    23    24    1
    13    24    25    1
    14    25    26    1
    15    25    27    1
    16    25    28    1
    17    28    29    1
    18    29    30    1
    19    30    31    1
    20     3     4   ar
    21     4     5   ar
    22     5     6   ar
    23     6     7    1
    24     7     8   am
    25     7     9    2
    26    19    20   ar
    27    20    15   ar
    28     6     1   ar
    29    30    23    1
    30    12    13    1
    31    21    22    1
    32    31    32    1
    33    31    33    1
    34     8    10    1
    35     8    11    1
@<TRIPOS>MOLECULE
*****
 33 35 0 0 0
SMALL
GASTEIGER

@<TRIPOS>ATOM
      1 C         141.9089  140.9490  167.0875 C.ar    1  UNL1        0.1409
      2 N         140.7538  140.4891  166.2483 N.ar    1  UNL1       -0.1986
      3 C         139.5426  139.8923  166.9018 C.ar    1  UNL1        0.2181
      4 N         139.4866  139.7554  168.3945 N.ar    1  UNL1       -0.2120
      5 C         140.6417  140.2153  169.2337 C.ar    1  UNL1        0.1091
      6 C         141.8528  140.8121  168.5803 C.ar    1  UNL1        0.1040
      7 C         143.0079  141.2720  169.4195 C.2     1  UNL1        0.2470
      8 N         143.4887  140.4267  170.5615 N.am    1  UNL1       -0.3252
      9 O         143.6822  142.5773  169.1166 O.2     1  UNL1       -0.2702
     10 H         143.0461  139.5701  170.7603 H       1  UNL1        0.1453
     11 H         144.2468  140.7286  171.1123 H       1  UNL1        0.1453
     12 N         143.1199  141.5459  166.4341 N.pl3   1  UNL1       -0.2977
     13 H         144.0073  141.1465  166.5840 H       1  UNL1        0.1536
     14 C         140.1221  144.8227  163.7368 C.3     1  UNL1        0.0311
     15 C         141.4802  144.3895  164.2036 C.ar    1  UNL1       -0.0206
     16 C         142.6974  145.1615  163.7886 C.ar    1  UNL1       -0.0042
     17 C         144.0555  144.7283  164.2554 C.ar    1  UNL1        0.0009
     18 C         144.1964  143.5231  165.1372 C.ar    1  UNL1        0.0146
     19 C         142.9791  142.7511  165.5522 C.ar    1  UNL1        0.0491
     20 C         141.6210  143.1843  165.0854 C.ar    1  UNL1        0.0104
     21 N         138.3876  139.4324  166.0626 N.pl3   1  UNL1       -0.3031
     22 H         137.7367  138.7915  166.4299 H       1  UNL1        0.1496
     23 C         138.2242  139.9490  164.6638 C.3     1  UNL1        0.0913
     24 C         137.8374  141.3798  164.4331 C.3     1  UNL1        0.0874
     25 C         137.6741  141.8964  163.0343 C.3     1  UNL1        0.2656
     26 F         137.4001  142.8448  161.9050 F       1  UNL1       -0.2043
     27 F         137.3555  143.1400  163.8101 F       1  UNL1       -0.2043
     28 C         137.8975  140.9821  161.8663 C.3     1  UNL1        0.0680
     29 C         138.2842  139.5513  162.0971 C.3     1  UNL1        0.0228
     30 C         138.4476  139.0347  163.4958 C.3     1  UNL1        0.0693
     31 N         138.8344  137.6039  163.7266 N.3     1  UNL1       -0.3209
     32 H         138.8998  137.4268  164.7290 H       1  UNL1        0.1189
     33 H         139.7376  137.4211  163.2894 H       1  UNL1        0.1189
@<TRIPOS>BOND
     1    14    15    1
     2    15    16   ar
     3    16    17   ar
     4    17    18   ar
     5    18    19   ar
     6    19    12    1
     7    12     1    1
     8     1     2   ar
     9     2     3   ar
    10     3    21    1
    11    23    21    1
    12    23    24    1
    13    24    25    1
    14    25    26    1
    15    25    27    1
    16    25    28    1
    17    28    29    1
    18    29    30    1
    19    30    31    1
    20     3     4   ar
    21     4     5   ar
    22     5     6   ar
    23     6     7    1
    24     7     8   am
    25     7     9    2
    26    19    20   ar
    27    20    15   ar
    28     6     1   ar
    29    30    23    1
    30    12    13    1
    31    21    22    1
    32    31    32    1
    33    31    33    1
    34     8    10    1
    35     8    11    1
@<TRIPOS>MOLECULE
*****
 33 35 0 0 0
SMALL
GASTEIGER

@<TRIPOS>ATOM
      1 C         141.0312  140.5102  168.5768 C.ar    1  UNL1        0.1409
      2 N         140.2737  139.9857  167.3931 N.ar    1  UNL1       -0.1986
      3 C         138.8688  139.4880  167.5624 C.ar    1  UNL1        0.2181
      4 N         138.2214  139.5149  168.9152 N.ar    1  UNL1       -0.2120
      5 C         138.9789  140.0395  170.0988 C.ar    1  UNL1        0.1091
      6 C         140.3838  140.5371  169.9297 C.ar    1  UNL1        0.1040
      7 C         141.1413  141.0617  171.1133 C.2     1  UNL1        0.2470
      8 N         142.4214  140.4040  171.5360 N.am    1  UNL1       -0.3252
      9 O         140.6186  142.2440  171.8743 O.2     1  UNL1       -0.2702
     10 H         142.7645  139.6281  171.0365 H       1  UNL1        0.1453
     11 H         142.9186  140.7483  172.3128 H       1  UNL1        0.1453
     12 N         142.4361  141.0079  168.4076 N.pl3   1  UNL1       -0.2977
     13 H         142.9885  141.2013  169.1993 H       1  UNL1        0.1536
     14 C         143.8740  139.0755  163.8035 C.3     1  UNL1        0.0311
     15 C         143.7184  140.2446  164.7302 C.ar    1  UNL1       -0.0206
     16 C         144.1259  141.6167  164.2817 C.ar    1  UNL1       -0.0042
     17 C         143.9703  142.7858  165.2084 C.ar    1  UNL1        0.0009
     18 C         143.4070  142.5829  166.5837 C.ar    1  UNL1        0.0146
     19 C         142.9994  141.2109  167.0323 C.ar    1  UNL1        0.0491
     20 C         143.1551  140.0417  166.1055 C.ar    1  UNL1        0.0104
     21 N         138.1113  138.9634  166.3787 N.pl3   1  UNL1       -0.3031
     22 H         137.1668  138.7028  166.4748 H       1  UNL1        0.1496
     23 C         138.7929  138.8361  165.0485 C.3     1  UNL1        0.0913
     24 C         139.8081  137.7545  164.8265 C.3     1  UNL1        0.0874
     25 C         140.4897  137.6271  163.4963 C.3     1  UNL1        0.2656
     26 F         141.3965  137.1054  162.4213 F       1  UNL1       -0.2043
     27 F         141.1383  136.4916  164.2311 F       1  UNL1       -0.2043
     28 C         140.1560  138.5814  162.3882 C.3     1  UNL1        0.0680
     29 C         139.1407  139.6631  162.6103 C.3     1  UNL1        0.0228
     30 C         138.4592  139.7904  163.9404 C.3     1  UNL1        0.0693
     31 N         137.4439  140.8721  164.1625 N.3     1  UNL1       -0.3209
     32 H         137.0850  140.8111  165.1153 H       1  UNL1        0.1189
     33 H         136.6752  140.7578  163.5017 H       1  UNL1        0.1189
@<TRIPOS>BOND
     1    14    15    1
     2    15    16   ar
     3    16    17   ar
     4    17    18   ar
     5    18    19   ar
     6    19    12    1
     7    12     1    1
     8     1     2   ar
     9     2     3   ar
    10     3    21    1
    11    23    21    1
    12    23    24    1
    13    24    25    1
    14    25    26    1
    15    25    27    1
    16    25    28    1
    17    28    29    1
    18    29    30    1
    19    30    31    1
    20     3     4   ar
    21     4     5   ar
    22     5     6   ar
    23     6     7    1
    24     7     8   am
    25     7     9    2
    26    19    20   ar
    27    20    15   ar
    28     6     1   ar
    29    30    23    1
    30    12    13    1
    31    21    22    1
    32    31    32    1
    33    31    33    1
    34     8    10    1
    35     8    11    1
@<TRIPOS>MOLECULE
*****
 33 35 0 0 0
SMALL
GASTEIGER

@<TRIPOS>ATOM
      1 C         140.1406  139.6151  167.0989 C.ar    1  UNL1        0.1409
      2 N         141.2247  139.1529  166.1708 N.ar    1  UNL1       -0.1986
      3 C         142.6339  139.0247  166.6686 C.ar    1  UNL1        0.2181
      4 N         142.9590  139.3586  168.0943 N.ar    1  UNL1       -0.2120
      5 C         141.8749  139.8207  169.0224 C.ar    1  UNL1        0.1091
      6 C         140.4658  139.9490  168.5247 C.ar    1  UNL1        0.1040
      7 C         139.3817  140.4111  169.4527 C.2     1  UNL1        0.2470
      8 N         139.5584  141.6740  170.2424 N.am    1  UNL1       -0.3252
      9 O         138.1210  139.6101  169.5911 O.2     1  UNL1       -0.2702
     10 H         140.3858  142.1997  170.1516 H       1  UNL1        0.1453
     11 H         138.8469  141.9773  170.8515 H       1  UNL1        0.1453
     12 N         138.7314  139.7433  166.6012 N.pl3   1  UNL1       -0.2977
     13 H         137.9772  139.5477  167.2029 H       1  UNL1        0.1536
     14 C         137.7462  143.4910  163.1394 C.3     1  UNL1        0.0311
     15 C         137.9788  142.0433  163.4558 C.ar    1  UNL1       -0.0206
     16 C         137.9515  141.0218  162.3577 C.ar    1  UNL1       -0.0042
     17 C         138.1841  139.5742  162.6741 C.ar    1  UNL1        0.0009
     18 C         138.4441  139.1480  164.0886 C.ar    1  UNL1        0.0146
     19 C         138.4714  140.1695  165.1866 C.ar    1  UNL1        0.0491
     20 C         138.2388  141.6171  164.8702 C.ar    1  UNL1        0.0104
     21 N         143.7179  138.5626  165.7405 N.pl3   1  UNL1       -0.3031
     22 H         144.2988  137.8106  165.9979 H       1  UNL1        0.1496
     23 C         143.9170  139.2464  164.4203 C.3     1  UNL1        0.0913
     24 C         144.8852  140.3861  164.3044 C.3     1  UNL1        0.0874
     25 C         145.0842  141.0699  162.9842 C.3     1  UNL1        0.2656
     26 F         145.6143  142.0274  161.9585 F       1  UNL1       -0.2043
     27 F         146.0375  141.8584  163.8322 F       1  UNL1       -0.2043
     28 C         144.3149  140.6138  161.7799 C.3     1  UNL1        0.0680
     29 C         143.3467  139.4740  161.8959 C.3     1  UNL1        0.0228
     30 C         143.1477  138.7903  163.2160 C.3     1  UNL1        0.0693
     31 N         142.1794  137.6505  163.3320 N.3     1  UNL1       -0.3209
     32 H         142.1710  137.3079  164.2927 H       1  UNL1        0.1189
     33 H         142.4636  136.8978  162.7051 H       1  UNL1        0.1189
@<TRIPOS>BOND
     1    14    15    1
     2    15    16   ar
     3    16    17   ar
     4    17    18   ar
     5    18    19   ar
     6    19    12    1
     7    12     1    1
     8     1     2   ar
     9     2     3   ar
    10     3    21    1
    11    23    21    1
    12    23    24    1
    13    24    25    1
    14    25    26    1
    15    25    27    1
    16    25    28    1
    17    28    29    1
    18    29    30    1
    19    30    31    1
    20     3     4   ar
    21     4     5   ar
    22     5     6   ar
    23     6     7    1
    24     7     8   am
    25     7     9    2
    26    19    20   ar
    27    20    15   ar
    28     6     1   ar
    29    30    23    1
    30    12    13    1
    31    21    22    1
    32    31    32    1
    33    31    33    1
    34     8    10    1
    35     8    11    1
@<TRIPOS>MOLECULE
*****
 33 35 0 0 0
SMALL
GASTEIGER

@<TRIPOS>ATOM
      1 C         140.2528  139.6571  164.4479 C.ar    1  UNL1        0.1409
      2 N         140.2121  140.3086  165.7985 N.ar    1  UNL1       -0.1986
      3 C         139.3777  139.7131  166.8936 C.ar    1  UNL1        0.2181
      4 N         138.5839  138.4663  166.6381 N.ar    1  UNL1       -0.2120
      5 C         138.6246  137.8148  165.2876 C.ar    1  UNL1        0.1091
      6 C         139.4590  138.4102  164.1925 C.ar    1  UNL1        0.1040
      7 C         139.4996  137.7588  162.8420 C.2     1  UNL1        0.2470
      8 N         138.2381  137.6045  162.0454 N.am    1  UNL1       -0.3252
      9 O         140.8020  137.2616  162.2880 O.2     1  UNL1       -0.2702
     10 H         137.3833  137.9308  162.4090 H       1  UNL1        0.1453
     11 H         138.2648  137.1769  161.1590 H       1  UNL1        0.1453
     12 N         141.0872  140.2525  163.3528 N.pl3   1  UNL1       -0.2977
     13 H         140.7201  140.3336  162.4430 H       1  UNL1        0.1536
     14 C         144.3492  144.0301  164.7982 C.3     1  UNL1        0.0311
     15 C         144.1119  142.6133  164.3667 C.ar    1  UNL1       -0.0206
     16 C         145.2684  141.6683  164.2265 C.ar    1  UNL1       -0.0042
     17 C         145.0311  140.2514  163.7951 C.ar    1  UNL1        0.0009
     18 C         143.6374  139.7795  163.5039 C.ar    1  UNL1        0.0146
     19 C         142.4810  140.7244  163.6441 C.ar    1  UNL1        0.0491
     20 C         142.7183  142.1413  164.0755 C.ar    1  UNL1        0.0104
     21 N         139.3370  140.3646  168.2441 N.pl3   1  UNL1       -0.3031
     22 H         138.4721  140.5376  168.6813 H       1  UNL1        0.1496
     23 C         140.6143  140.7524  168.9285 C.3     1  UNL1        0.0913
     24 C         141.6462  141.5543  168.1922 C.3     1  UNL1        0.0874
     25 C         142.9234  141.9421  168.8766 C.3     1  UNL1        0.2656
     26 F         144.2789  142.5466  169.0938 F       1  UNL1       -0.2043
     27 F         143.1489  142.5661  167.5314 F       1  UNL1       -0.2043
     28 C         143.1687  141.5279  170.2973 C.3     1  UNL1        0.0680
     29 C         142.1367  140.7260  171.0336 C.3     1  UNL1        0.0228
     30 C         140.8596  140.3383  170.3492 C.3     1  UNL1        0.0693
     31 N         139.8276  139.5363  171.0855 N.3     1  UNL1       -0.3209
     32 H         139.0302  139.3643  170.4732 H       1  UNL1        0.1189
     33 H         139.5189  140.0535  171.9087 H       1  UNL1        0.1189
@<TRIPOS>BOND
     1    14    15    1
     2    15    16   ar
     3    16    17   ar
     4    17    18   ar
     5    18    19   ar
     6    19    12    1
     7    12     1    1
     8     1     2   ar
     9     2     3   ar
    10     3    21    1
    11    23    21    1
    12    23    24    1
    13    24    25    1
    14    25    26    1
    15    25    27    1
    16    25    28    1
    17    28    29    1
    18    29    30    1
    19    30    31    1
    20     3     4   ar
    21     4     5   ar
    22     5     6   ar
    23     6     7    1
    24     7     8   am
    25     7     9    2
    26    19    20   ar
    27    20    15   ar
    28     6     1   ar
    29    30    23    1
    30    12    13    1
    31    21    22    1
    32    31    32    1
    33    31    33    1
    34     8    10    1
    35     8    11    1
@<TRIPOS>MOLECULE
*****
 33 35 0 0 0
SMALL
GASTEIGER

@<TRIPOS>ATOM
      1 C         140.1306  143.0039  163.6629 C.ar    1  UNL1        0.1409
      2 N         141.2385  142.4282  164.4942 N.ar    1  UNL1       -0.1986
      3 C         142.4538  143.2531  164.7991 C.ar    1  UNL1        0.2181
      4 N         142.5611  144.6535  164.2726 N.ar    1  UNL1       -0.2120
      5 C         141.4532  145.2292  163.4412 C.ar    1  UNL1        0.1091
      6 C         140.2380  144.4044  163.1364 C.ar    1  UNL1        0.1040
      7 C         139.1301  144.9800  162.3050 C.2     1  UNL1        0.2470
      8 N         139.4510  145.8610  161.1341 N.am    1  UNL1       -0.3252
      9 O         137.7012  144.6748  162.6445 O.2     1  UNL1       -0.2702
     10 H         140.3888  146.0613  160.9113 H       1  UNL1        0.1453
     11 H         138.7238  146.2388  160.5885 H       1  UNL1        0.1453
     12 N         138.9154  142.1791  163.3580 N.pl3   1  UNL1       -0.2977
     13 H         138.1590  142.5785  162.8706 H       1  UNL1        0.1536
     14 C         137.7856  138.6240  166.9752 C.3     1  UNL1        0.0311
     15 C         138.2877  138.9682  165.6043 C.ar    1  UNL1       -0.0206
     16 C         138.7271  137.8791  164.6712 C.ar    1  UNL1       -0.0042
     17 C         139.2292  138.2234  163.3003 C.ar    1  UNL1        0.0009
     18 C         139.2920  139.6567  162.8626 C.ar    1  UNL1        0.0146
     19 C         138.8527  140.7457  163.7957 C.ar    1  UNL1        0.0491
     20 C         138.3505  140.4015  165.1666 C.ar    1  UNL1        0.0104
     21 N         143.5617  142.6774  165.6305 N.pl3   1  UNL1       -0.3031
     22 H         144.4993  142.8826  165.4112 H       1  UNL1        0.1496
     23 C         143.2410  141.7891  166.7959 C.3     1  UNL1        0.0913
     24 C         143.2335  142.3504  168.1869 C.3     1  UNL1        0.0874
     25 C         142.9128  141.4621  169.3524 C.3     1  UNL1        0.2656
     26 F         142.6718  141.0244  170.7667 F       1  UNL1       -0.2043
     27 F         143.1422  142.7596  170.0692 F       1  UNL1       -0.2043
     28 C         142.5996  140.0126  169.1268 C.3     1  UNL1        0.0680
     29 C         142.6072  139.4514  167.7357 C.3     1  UNL1        0.0228
     30 C         142.9278  140.3396  166.5703 C.3     1  UNL1        0.0693
     31 N         142.9354  139.7784  165.1792 N.3     1  UNL1       -0.3209
     32 H         143.1717  140.5165  164.5161 H       1  UNL1        0.1189
     33 H         142.0121  139.4055  164.9581 H       1  UNL1        0.1189
@<TRIPOS>BOND
     1    14    15    1
     2    15    16   ar
     3    16    17   ar
     4    17    18   ar
     5    18    19   ar
     6    19    12    1
     7    12     1    1
     8     1     2   ar
     9     2     3   ar
    10     3    21    1
    11    23    21    1
    12    23    24    1
    13    24    25    1
    14    25    26    1
    15    25    27    1
    16    25    28    1
    17    28    29    1
    18    29    30    1
    19    30    31    1
    20     3     4   ar
    21     4     5   ar
    22     5     6   ar
    23     6     7    1
    24     7     8   am
    25     7     9    2
    26    19    20   ar
    27    20    15   ar
    28     6     1   ar
    29    30    23    1
    30    12    13    1
    31    21    22    1
    32    31    32    1
    33    31    33    1
    34     8    10    1
    35     8    11    1
@<TRIPOS>MOLECULE
*****
 33 35 0 0 0
SMALL
GASTEIGER

@<TRIPOS>ATOM
      1 C         141.5137  140.5276  166.9628 C.ar    1  UNL1        0.1409
      2 N         142.4541  141.3278  166.1112 N.ar    1  UNL1       -0.1986
      3 C         143.3513  142.3509  166.7424 C.ar    1  UNL1        0.2181
      4 N         143.3080  142.5739  168.2251 N.ar    1  UNL1       -0.2120
      5 C         142.3675  141.7737  169.0767 C.ar    1  UNL1        0.1091
      6 C         141.4704  140.7506  168.4456 C.ar    1  UNL1        0.1040
      7 C         140.5299  139.9504  169.2971 C.2     1  UNL1        0.2470
      8 N         141.0186  139.3241  170.5695 N.am    1  UNL1       -0.3252
      9 O         139.1006  139.7765  168.8763 O.2     1  UNL1       -0.2702
     10 H         141.9567  139.4382  170.8456 H       1  UNL1        0.1453
     11 H         140.4013  138.7989  171.1284 H       1  UNL1        0.1453
     12 N         140.6165  139.5045  166.3317 N.pl3   1  UNL1       -0.2977
     13 H         140.6764  138.5609  166.6062 H       1  UNL1        0.1536
     14 C         137.9703  138.4665  161.9820 C.3     1  UNL1        0.0311
     15 C         138.3050  139.3999  163.1074 C.ar    1  UNL1       -0.0206
     16 C         137.6512  140.7478  163.1835 C.ar    1  UNL1       -0.0042
     17 C         137.9859  141.6812  164.3090 C.ar    1  UNL1        0.0009
     18 C         138.9743  141.2668  165.3584 C.ar    1  UNL1        0.0146
     19 C         139.6280  139.9190  165.2823 C.ar    1  UNL1        0.0491
     20 C         139.2934  138.9855  164.1568 C.ar    1  UNL1        0.0104
     21 N         144.2918  143.1511  165.8908 N.pl3   1  UNL1       -0.3031
     22 H         145.0859  143.5702  166.2945 H       1  UNL1        0.1496
     23 C         144.0224  143.3128  164.4240 C.3     1  UNL1        0.0913
     24 C         142.9130  144.2092  163.9596 C.3     1  UNL1        0.0874
     25 C         142.6436  144.3708  162.4928 C.3     1  UNL1        0.2656
     26 F         142.0055  144.8448  161.2208 F       1  UNL1       -0.2043
     27 F         141.5821  145.2702  163.0533 F       1  UNL1       -0.2043
     28 C         143.4835  143.6360  161.4906 C.3     1  UNL1        0.0680
     29 C         144.5929  142.7395  161.9551 C.3     1  UNL1        0.0228
     30 C         144.8623  142.5779  163.4218 C.3     1  UNL1        0.0693
     31 N         145.9717  141.6814  163.8863 N.3     1  UNL1       -0.3209
     32 H         146.0119  141.6904  164.9054 H       1  UNL1        0.1189
     33 H         146.8586  142.0141  163.5080 H       1  UNL1        0.1189
@<TRIPOS>BOND
     1    14    15    1
     2    15    16   ar
     3    16    17   ar
     4    17    18   ar
     5    18    19   ar
     6    19    12    1
     7    12     1    1
     8     1     2   ar
     9     2     3   ar
    10     3    21    1
    11    23    21    1
    12    23    24    1
    13    24    25    1
    14    25    26    1
    15    25    27    1
    16    25    28    1
    17    28    29    1
    18    29    30    1
    19    30    31    1
    20     3     4   ar
    21     4     5   ar
    22     5     6   ar
    23     6     7    1
    24     7     8   am
    25     7     9    2
    26    19    20   ar
    27    20    15   ar
    28     6     1   ar
    29    30    23    1
    30    12    13    1
    31    21    22    1
    32    31    32    1
    33    31    33    1
    34     8    10    1
    35     8    11    1
@<TRIPOS>MOLECULE
*****
 33 35 0 0 0
SMALL
GASTEIGER

@<TRIPOS>ATOM
      1 C         141.7746  142.3903  164.4037 C.ar    1  UNL1        0.1409
      2 N         141.9876  142.2005  165.8764 N.ar    1  UNL1       -0.1986
      3 C         143.2595  142.6716  166.5171 C.ar    1  UNL1        0.2181
      4 N         144.3184  143.3324  165.6852 N.ar    1  UNL1       -0.2120
      5 C         144.1054  143.5223  164.2126 C.ar    1  UNL1        0.1091
      6 C         142.8336  143.0512  163.5718 C.ar    1  UNL1        0.1040
      7 C         142.6206  143.2411  162.0992 C.2     1  UNL1        0.2470
      8 N         142.6795  144.6166  161.5041 N.am    1  UNL1       -0.3252
      9 O         142.3487  142.0552  161.2217 O.2     1  UNL1       -0.2702
     10 H         142.8579  145.3949  162.0800 H       1  UNL1        0.1453
     11 H         142.5397  144.7412  160.5375 H       1  UNL1        0.1453
     12 N         140.5028  141.9193  163.7630 N.pl3   1  UNL1       -0.2977
     13 H         140.0092  142.5140  163.1532 H       1  UNL1        0.1536
     14 C         137.7988  138.6716  166.7864 C.3     1  UNL1        0.0311
     15 C         138.6311  138.9182  165.5631 C.ar    1  UNL1       -0.0206
     16 C         138.9436  137.7877  164.6281 C.ar    1  UNL1       -0.0042
     17 C         139.7758  138.0343  163.4048 C.ar    1  UNL1        0.0009
     18 C         140.2955  139.4115  163.1164 C.ar    1  UNL1        0.0146
     19 C         139.9831  140.5420  164.0514 C.ar    1  UNL1        0.0491
     20 C         139.1508  140.2954  165.2747 C.ar    1  UNL1        0.0104
     21 N         143.4725  142.4818  167.9897 N.pl3   1  UNL1       -0.3031
     22 H         144.3765  142.5638  168.3710 H       1  UNL1        0.1496
     23 C         142.3081  142.1668  168.8814 C.3     1  UNL1        0.0913
     24 C         141.4271  143.2723  169.3831 C.3     1  UNL1        0.0874
     25 C         140.2627  142.9574  170.2748 C.3     1  UNL1        0.2656
     26 F         139.0506  143.1602  171.1348 F       1  UNL1       -0.2043
     27 F         140.1250  144.4482  170.1834 F       1  UNL1       -0.2043
     28 C         139.9795  141.5370  170.6649 C.3     1  UNL1        0.0680
     29 C         140.8606  140.4315  170.1632 C.3     1  UNL1        0.0228
     30 C         142.0249  140.7464  169.2715 C.3     1  UNL1        0.0693
     31 N         142.9060  139.6409  168.7699 N.3     1  UNL1       -0.3209
     32 H         143.6415  140.0327  168.1817 H       1  UNL1        0.1189
     33 H         142.3489  138.9830  168.2247 H       1  UNL1        0.1189
@<TRIPOS>BOND
     1    14    15    1
     2    15    16   ar
     3    16    17   ar
     4    17    18   ar
     5    18    19   ar
     6    19    12    1
     7    12     1    1
     8     1     2   ar
     9     2     3   ar
    10     3    21    1
    11    23    21    1
    12    23    24    1
    13    24    25    1
    14    25    26    1
    15    25    27    1
    16    25    28    1
    17    28    29    1
    18    29    30    1
    19    30    31    1
    20     3     4   ar
    21     4     5   ar
    22     5     6   ar
    23     6     7    1
    24     7     8   am
    25     7     9    2
    26    19    20   ar
    27    20    15   ar
    28     6     1   ar
    29    30    23    1
    30    12    13    1
    31    21    22    1
    32    31    32    1
    33    31    33    1
    34     8    10    1
    35     8    11    1
@<TRIPOS>MOLECULE
*****
 33 35 0 0 0
SMALL
GASTEIGER

@<TRIPOS>ATOM
      1 C         140.9161  141.7526  167.2012 C.ar    1  UNL1        0.1409
      2 N         141.9655  142.2260  166.2397 N.ar    1  UNL1       -0.1986
      3 C         143.3088  142.6583  166.7485 C.ar    1  UNL1        0.2181
      4 N         143.6026  142.6173  168.2188 N.ar    1  UNL1       -0.2120
      5 C         142.5531  142.1439  169.1804 C.ar    1  UNL1        0.1091
      6 C         141.2100  141.7116  168.6717 C.ar    1  UNL1        0.1040
      7 C         140.1605  141.2382  169.6333 C.2     1  UNL1        0.2470
      8 N         139.5103  142.2105  170.5723 N.am    1  UNL1       -0.3252
      9 O         139.7613  139.7924  169.6558 O.2     1  UNL1       -0.2702
     10 H         139.7724  143.1594  170.5575 H       1  UNL1        0.1453
     11 H         138.8216  141.8998  171.2034 H       1  UNL1        0.1453
     12 N         139.5729  141.3203  166.6925 N.pl3   1  UNL1       -0.2977
     13 H         138.8260  141.9612  166.6684 H       1  UNL1        0.1536
     14 C         141.1421  137.2437  163.8784 C.3     1  UNL1        0.0311
     15 C         140.1523  137.8731  164.8133 C.ar    1  UNL1       -0.0206
     16 C         138.9572  137.0936  165.2761 C.ar    1  UNL1       -0.0042
     17 C         137.9674  137.7230  166.2110 C.ar    1  UNL1        0.0009
     18 C         138.1726  139.1319  166.6832 C.ar    1  UNL1        0.0146
     19 C         139.3676  139.9113  166.2204 C.ar    1  UNL1        0.0491
     20 C         140.3575  139.2819  165.2854 C.ar    1  UNL1        0.0104
     21 N         144.3582  143.1317  165.7869 N.pl3   1  UNL1       -0.3031
     22 H         145.0392  143.7790  166.0809 H       1  UNL1        0.1496
     23 C         144.3699  142.6189  164.3773 C.3     1  UNL1        0.0913
     24 C         144.6077  141.1620  164.1112 C.3     1  UNL1        0.0874
     25 C         144.6194  140.6491  162.7016 C.3     1  UNL1        0.2656
     26 F         144.7220  139.6931  161.5503 F       1  UNL1       -0.2043
     27 F         144.8811  139.3730  163.4452 F       1  UNL1       -0.2043
     28 C         144.3934  141.5932  161.5581 C.3     1  UNL1        0.0680
     29 C         144.1556  143.0502  161.8243 C.3     1  UNL1        0.0228
     30 C         144.1439  143.5630  163.2338 C.3     1  UNL1        0.0693
     31 N         143.9061  145.0200  163.5000 N.3     1  UNL1       -0.3209
     32 H         143.9315  145.1905  164.5053 H       1  UNL1        0.1189
     33 H         142.9931  145.2881  163.1326 H       1  UNL1        0.1189
@<TRIPOS>BOND
     1    14    15    1
     2    15    16   ar
     3    16    17   ar
     4    17    18   ar
     5    18    19   ar
     6    19    12    1
     7    12     1    1
     8     1     2   ar
     9     2     3   ar
    10     3    21    1
    11    23    21    1
    12    23    24    1
    13    24    25    1
    14    25    26    1
    15    25    27    1
    16    25    28    1
    17    28    29    1
    18    29    30    1
    19    30    31    1
    20     3     4   ar
    21     4     5   ar
    22     5     6   ar
    23     6     7    1
    24     7     8   am
    25     7     9    2
    26    19    20   ar
    27    20    15   ar
    28     6     1   ar
    29    30    23    1
    30    12    13    1
    31    21    22    1
    32    31    32    1
    33    31    33    1
    34     8    10    1
    35     8    11    1
