@<TRIPOS>MOLECULE
*****
 32 36 0 0 0
SMALL
GASTEIGER

@<TRIPOS>ATOM
      1 C         143.8678  143.9896  164.0792 C.3     1  UNL1        0.0730
      2 N         142.3759  143.9838  164.2353 N.3     1  UNL1       -0.2724
      3 C         141.4549  145.1323  163.9481 C.3     1  UNL1        0.0724
      4 C         140.0529  144.6868  164.2413 C.3     1  UNL1        0.0214
      5 C         138.7883  143.9698  164.6107 C.3     1  UNL1        0.0072
      6 C         140.1075  143.2629  164.7098 C.3     1  UNL1        0.0350
      7 C         141.5432  142.8285  164.7061 C.3     1  UNL1        0.0761
      8 C         139.5506  141.9597  165.2012 C.ar    1  UNL1       -0.0215
      9 C         138.4967  141.2472  164.4065 C.ar    1  UNL1       -0.0043
     10 C         137.9397  139.9440  164.8980 C.ar    1  UNL1        0.0035
     11 C         138.4366  139.3533  166.1842 C.ar    1  UNL1        0.0714
     12 C         139.4906  140.0660  166.9789 C.ar    1  UNL1        0.0035
     13 C         140.0475  141.3691  166.4874 C.ar    1  UNL1       -0.0043
     14 C         137.8797  138.0502  166.6757 C.3     1  UNL1        0.4186
     15 F         137.3228  136.7470  167.1671 F       1  UNL1       -0.1659
     16 F         138.4320  137.3576  165.4652 F       1  UNL1       -0.1659
     17 F         137.3274  138.7427  167.8861 F       1  UNL1       -0.1659
     18 C         144.6979  142.9468  164.7671 C.3     1  UNL1        0.0294
     19 C         145.5569  142.0192  163.9597 C.3     1  UNL1        0.0666
     20 S         145.1761  140.5750  163.8203 S.3     1  UNL1       -0.0756
     21 C         143.5878  141.1699  161.0324 C.3     1  UNL1        0.1340
     22 N         143.0256  140.4732  162.2360 N.ar    1  UNL1       -0.2884
     23 C         143.7557  140.1998  163.5174 C.ar    1  UNL1        0.1932
     24 N         142.8160  139.4852  164.4428 N.ar    1  UNL1       -0.1221
     25 N         141.5052  139.3171  163.7333 N.ar    1  UNL1       -0.1281
     26 C         141.6348  139.9277  162.3694 C.ar    1  UNL1        0.1698
     27 C         140.5617  139.9831  161.3226 C.ar    1  UNL1        0.0742
     28 C         140.2697  138.7747  160.4833 C.ar    1  UNL1        0.1052
     29 N         139.1967  138.8301  159.4366 N.ar    1  UNL1       -0.2223
     30 C         138.4157  140.0939  159.2292 C.ar    1  UNL1        0.1989
     31 N         138.7077  141.3022  160.0686 N.ar    1  UNL1       -0.2223
     32 C         139.7807  141.2468  161.1153 C.ar    1  UNL1        0.1052
@<TRIPOS>BOND
     1    21    22    1
     2    22    23   ar
     3    23    20    1
     4    20    19    1
     5    19    18    1
     6    18     1    1
     7     1     2    1
     8     2     3    1
     9     4     3    1
    10     4     5    1
    11     5     6    1
    12     6     8    1
    13     8     9   ar
    14     9    10   ar
    15    10    11   ar
    16    11    14    1
    17    14    15    1
    18    14    16    1
    19    14    17    1
    20    11    12   ar
    21    12    13   ar
    22     6     7    1
    23    23    24   ar
    24    24    25   ar
    25    25    26   ar
    26    26    27    1
    27    27    28   ar
    28    28    29   ar
    29    29    30   ar
    30    30    31   ar
    31    31    32   ar
    32    26    22   ar
    33    32    27   ar
    34     7     2    1
    35     6     4    1
    36    13     8   ar
@<TRIPOS>MOLECULE
*****
 32 36 0 0 0
SMALL
GASTEIGER

@<TRIPOS>ATOM
      1 C         137.7206  143.0745  163.9064 C.3     1  UNL1        0.0730
      2 N         138.1735  141.6889  164.2597 N.3     1  UNL1       -0.2724
      3 C         137.8063  140.4291  163.5330 C.3     1  UNL1        0.0724
      4 C         138.4790  139.2813  164.2259 C.3     1  UNL1        0.0214
      5 C         139.2626  138.3565  165.1094 C.3     1  UNL1        0.0072
      6 C         139.2618  139.8317  165.3810 C.3     1  UNL1        0.0350
      7 C         139.0730  141.3197  165.4018 C.3     1  UNL1        0.0761
      8 C         140.1612  139.7710  166.5799 C.ar    1  UNL1       -0.0215
      9 C         139.5980  139.9945  167.9520 C.ar    1  UNL1       -0.0043
     10 C         140.4974  139.9337  169.1510 C.ar    1  UNL1        0.0035
     11 C         141.9601  139.6494  168.9777 C.ar    1  UNL1        0.0714
     12 C         142.5232  139.4259  167.6055 C.ar    1  UNL1        0.0035
     13 C         141.6238  139.4867  166.4066 C.ar    1  UNL1       -0.0043
     14 C         142.8594  139.5887  170.1766 C.3     1  UNL1        0.4186
     15 F         143.7588  139.5279  171.3755 F       1  UNL1       -0.1659
     16 F         142.6353  138.1084  170.2698 F       1  UNL1       -0.1659
     17 F         143.0836  141.0689  170.0835 F       1  UNL1       -0.1659
     18 C         138.0699  144.2282  164.7990 C.3     1  UNL1        0.0294
     19 C         139.4682  144.7710  164.8105 C.3     1  UNL1        0.0666
     20 S         140.3551  144.5843  163.6152 S.3     1  UNL1       -0.0756
     21 C         140.1813  142.2540  161.3374 C.3     1  UNL1        0.1340
     22 N         141.1606  142.3061  162.4725 N.ar    1  UNL1       -0.2884
     23 C         141.2404  143.3772  163.5195 C.ar    1  UNL1        0.1932
     24 N         142.3610  143.0294  164.4539 N.ar    1  UNL1       -0.1221
     25 N         142.9737  141.7433  163.9845 N.ar    1  UNL1       -0.1281
     26 C         142.2318  141.2963  162.7599 C.ar    1  UNL1        0.1698
     27 C         142.5120  140.0569  161.9626 C.ar    1  UNL1        0.0742
     28 C         143.7111  139.9987  161.0633 C.ar    1  UNL1        0.1052
     29 N         143.9912  138.7594  160.2661 N.ar    1  UNL1       -0.2223
     30 C         143.0722  137.5782  160.3681 C.ar    1  UNL1        0.1989
     31 N         141.8731  137.6364  161.2673 N.ar    1  UNL1       -0.2223
     32 C         141.5930  138.8758  162.0646 C.ar    1  UNL1        0.1052
@<TRIPOS>BOND
     1    21    22    1
     2    22    23   ar
     3    23    20    1
     4    20    19    1
     5    19    18    1
     6    18     1    1
     7     1     2    1
     8     2     3    1
     9     4     3    1
    10     4     5    1
    11     5     6    1
    12     6     8    1
    13     8     9   ar
    14     9    10   ar
    15    10    11   ar
    16    11    14    1
    17    14    15    1
    18    14    16    1
    19    14    17    1
    20    11    12   ar
    21    12    13   ar
    22     6     7    1
    23    23    24   ar
    24    24    25   ar
    25    25    26   ar
    26    26    27    1
    27    27    28   ar
    28    28    29   ar
    29    29    30   ar
    30    30    31   ar
    31    31    32   ar
    32    26    22   ar
    33    32    27   ar
    34     7     2    1
    35     6     4    1
    36    13     8   ar
@<TRIPOS>MOLECULE
*****
 32 36 0 0 0
SMALL
GASTEIGER

@<TRIPOS>ATOM
      1 C         142.9193  144.6140  162.1031 C.3     1  UNL1        0.0730
      2 N         143.5921  143.4268  162.7257 N.3     1  UNL1       -0.2724
      3 C         144.8106  142.7276  162.1998 C.3     1  UNL1        0.0724
      4 C         145.1362  141.5989  163.1326 C.3     1  UNL1        0.0214
      5 C         145.2103  140.5715  164.2229 C.3     1  UNL1        0.0072
      6 C         144.1190  141.6005  164.2350 C.3     1  UNL1        0.0350
      7 C         143.1647  142.7301  163.9835 C.3     1  UNL1        0.0761
      8 C         143.4634  141.1190  165.4952 C.ar    1  UNL1       -0.0215
      9 C         143.0443  139.6843  165.6217 C.ar    1  UNL1       -0.0043
     10 C         142.3887  139.2028  166.8821 C.ar    1  UNL1        0.0035
     11 C         142.1522  140.1560  168.0159 C.ar    1  UNL1        0.0714
     12 C         142.5714  141.5907  167.8894 C.ar    1  UNL1        0.0035
     13 C         143.2270  142.0722  166.6291 C.ar    1  UNL1       -0.0043
     14 C         141.4966  139.6745  169.2762 C.3     1  UNL1        0.4186
     15 F         140.8410  139.1931  170.5365 F       1  UNL1       -0.1659
     16 F         140.2650  140.4601  168.9356 F       1  UNL1       -0.1659
     17 F         142.7282  138.8889  169.6167 F       1  UNL1       -0.1659
     18 C         141.4482  144.5756  161.8127 C.3     1  UNL1        0.0294
     19 C         140.5099  145.4645  162.5739 C.3     1  UNL1        0.0666
     20 S         139.0506  145.1256  162.6488 S.3     1  UNL1       -0.0756
     21 C         139.8720  142.8592  164.8484 C.3     1  UNL1        0.1340
     22 N         138.9900  142.6492  163.6533 N.ar    1  UNL1       -0.2884
     23 C         138.6125  143.6910  162.6423 C.ar    1  UNL1        0.1932
     24 N         137.7199  143.0462  161.6236 N.ar    1  UNL1       -0.1221
     25 N         137.5459  141.6061  162.0051 N.ar    1  UNL1       -0.1281
     26 C         138.3309  141.3607  163.2595 C.ar    1  UNL1        0.1698
     27 C         138.4378  140.0558  163.9916 C.ar    1  UNL1        0.0742
     28 C         138.1509  139.9954  165.4627 C.ar    1  UNL1        0.1052
     29 N         138.2578  138.6906  166.1947 N.ar    1  UNL1       -0.2223
     30 C         138.6518  137.4461  165.4557 C.ar    1  UNL1        0.1989
     31 N         138.9388  137.5065  163.9846 N.ar    1  UNL1       -0.2223
     32 C         138.8318  138.8114  163.2526 C.ar    1  UNL1        0.1052
@<TRIPOS>BOND
     1    21    22    1
     2    22    23   ar
     3    23    20    1
     4    20    19    1
     5    19    18    1
     6    18     1    1
     7     1     2    1
     8     2     3    1
     9     4     3    1
    10     4     5    1
    11     5     6    1
    12     6     8    1
    13     8     9   ar
    14     9    10   ar
    15    10    11   ar
    16    11    14    1
    17    14    15    1
    18    14    16    1
    19    14    17    1
    20    11    12   ar
    21    12    13   ar
    22     6     7    1
    23    23    24   ar
    24    24    25   ar
    25    25    26   ar
    26    26    27    1
    27    27    28   ar
    28    28    29   ar
    29    29    30   ar
    30    30    31   ar
    31    31    32   ar
    32    26    22   ar
    33    32    27   ar
    34     7     2    1
    35     6     4    1
    36    13     8   ar
@<TRIPOS>MOLECULE
*****
 32 36 0 0 0
SMALL
GASTEIGER

@<TRIPOS>ATOM
      1 C         144.7477  139.5171  163.6125 C.3     1  UNL1        0.0730
      2 N         144.4520  140.9723  163.4007 N.3     1  UNL1       -0.2724
      3 C         145.3600  141.9703  162.7455 C.3     1  UNL1        0.0724
      4 C         144.6656  143.2999  162.7469 C.3     1  UNL1        0.0214
      5 C         143.7408  144.4720  162.8916 C.3     1  UNL1        0.0072
      6 C         143.3282  143.1236  163.4030 C.3     1  UNL1        0.0350
      7 C         143.1963  141.6851  163.8071 C.3     1  UNL1        0.0761
      8 C         141.9863  143.5545  163.9163 C.ar    1  UNL1       -0.0215
      9 C         141.4417  142.9614  165.1819 C.ar    1  UNL1       -0.0043
     10 C         140.0996  143.3922  165.6952 C.ar    1  UNL1        0.0035
     11 C         139.3023  144.4162  164.9430 C.ar    1  UNL1        0.0714
     12 C         139.8470  145.0093  163.6774 C.ar    1  UNL1        0.0035
     13 C         141.1890  144.5784  163.1641 C.ar    1  UNL1       -0.0043
     14 C         137.9604  144.8470  165.4563 C.3     1  UNL1        0.4186
     15 F         136.6184  145.2779  165.9696 F       1  UNL1       -0.1659
     16 F         138.6237  145.5377  166.6108 F       1  UNL1       -0.1659
     17 F         137.2970  144.1564  164.3018 F       1  UNL1       -0.1659
     18 C         143.9433  138.4758  162.8923 C.3     1  UNL1        0.0294
     19 C         142.4451  138.5488  162.8980 C.3     1  UNL1        0.0666
     20 S         141.6644  137.8522  163.9729 S.3     1  UNL1       -0.0756
     21 C         143.0014  138.9107  166.7552 C.3     1  UNL1        0.1340
     22 N         141.5860  139.1396  166.3142 N.ar    1  UNL1       -0.2884
     23 C         140.9715  138.6530  165.0352 C.ar    1  UNL1        0.1932
     24 N         139.5425  139.1079  165.0052 N.ar    1  UNL1       -0.1221
     25 N         139.2738  139.8755  166.2655 N.ar    1  UNL1       -0.1281
     26 C         140.5368  139.8951  167.0745 C.ar    1  UNL1        0.1698
     27 C         140.7186  140.5545  168.4095 C.ar    1  UNL1        0.0742
     28 C         141.8380  141.5311  168.6174 C.ar    1  UNL1        0.1052
     29 N         142.0197  142.1905  169.9524 N.ar    1  UNL1       -0.2223
     30 C         141.0822  141.8733  171.0795 C.ar    1  UNL1        0.1989
     31 N         139.9628  140.8966  170.8716 N.ar    1  UNL1       -0.2223
     32 C         139.7810  140.2373  169.5366 C.ar    1  UNL1        0.1052
@<TRIPOS>BOND
     1    21    22    1
     2    22    23   ar
     3    23    20    1
     4    20    19    1
     5    19    18    1
     6    18     1    1
     7     1     2    1
     8     2     3    1
     9     4     3    1
    10     4     5    1
    11     5     6    1
    12     6     8    1
    13     8     9   ar
    14     9    10   ar
    15    10    11   ar
    16    11    14    1
    17    14    15    1
    18    14    16    1
    19    14    17    1
    20    11    12   ar
    21    12    13   ar
    22     6     7    1
    23    23    24   ar
    24    24    25   ar
    25    25    26   ar
    26    26    27    1
    27    27    28   ar
    28    28    29   ar
    29    29    30   ar
    30    30    31   ar
    31    31    32   ar
    32    26    22   ar
    33    32    27   ar
    34     7     2    1
    35     6     4    1
    36    13     8   ar
@<TRIPOS>MOLECULE
*****
 32 36 0 0 0
SMALL
GASTEIGER

@<TRIPOS>ATOM
      1 C         145.4118  141.9036  163.1760 C.3     1  UNL1        0.0730
      2 N         144.6693  140.9631  164.0784 N.3     1  UNL1       -0.2724
      3 C         144.6836  139.4655  163.9951 C.3     1  UNL1        0.0724
      4 C         143.8052  138.9320  165.0876 C.3     1  UNL1        0.0214
      5 C         142.8835  138.7015  166.2484 C.3     1  UNL1        0.0072
      6 C         143.2479  140.0999  165.8463 C.3     1  UNL1        0.0350
      7 C         143.7820  141.3552  165.2225 C.3     1  UNL1        0.0761
      8 C         142.4368  140.7843  166.9063 C.ar    1  UNL1       -0.0215
      9 C         142.4289  140.2486  168.3073 C.ar    1  UNL1       -0.0043
     10 C         141.6178  140.9330  169.3674 C.ar    1  UNL1        0.0035
     11 C         140.8146  142.1531  169.0264 C.ar    1  UNL1        0.0714
     12 C         140.8225  142.6888  167.6253 C.ar    1  UNL1        0.0035
     13 C         141.6336  142.0044  166.5652 C.ar    1  UNL1       -0.0043
     14 C         140.0034  142.8375  170.0864 C.3     1  UNL1        0.4186
     15 F         139.1923  143.5219  171.1464 F       1  UNL1       -0.1659
     16 F         140.8663  144.0578  169.9588 F       1  UNL1       -0.1659
     17 F         139.1406  141.6172  170.2140 F       1  UNL1       -0.1659
     18 C         144.6674  142.9687  162.4268 C.3     1  UNL1        0.0294
     19 C         144.3047  142.7584  160.9866 C.3     1  UNL1        0.0666
     20 S         142.9206  142.3116  160.6194 S.3     1  UNL1       -0.0756
     21 C         140.7758  142.4009  163.0772 C.3     1  UNL1        0.1340
     22 N         141.3248  141.1637  162.4307 N.ar    1  UNL1       -0.2884
     23 C         142.3107  141.1227  161.3009 C.ar    1  UNL1        0.1932
     24 N         142.5795  139.6841  160.9724 N.ar    1  UNL1       -0.1221
     25 N         141.7599  138.8360  161.8990 N.ar    1  UNL1       -0.1281
     26 C         140.9844  139.7505  162.8003 C.ar    1  UNL1        0.1698
     27 C         140.0351  139.3262  163.8815 C.ar    1  UNL1        0.0742
     28 C         139.9247  137.8781  164.2568 C.ar    1  UNL1        0.1052
     29 N         138.9754  137.4538  165.3379 N.ar    1  UNL1       -0.2223
     30 C         138.1366  138.4776  166.0438 C.ar    1  UNL1        0.1989
     31 N         138.2471  139.9257  165.6686 N.ar    1  UNL1       -0.2223
     32 C         139.1963  140.3500  164.5874 C.ar    1  UNL1        0.1052
@<TRIPOS>BOND
     1    21    22    1
     2    22    23   ar
     3    23    20    1
     4    20    19    1
     5    19    18    1
     6    18     1    1
     7     1     2    1
     8     2     3    1
     9     4     3    1
    10     4     5    1
    11     5     6    1
    12     6     8    1
    13     8     9   ar
    14     9    10   ar
    15    10    11   ar
    16    11    14    1
    17    14    15    1
    18    14    16    1
    19    14    17    1
    20    11    12   ar
    21    12    13   ar
    22     6     7    1
    23    23    24   ar
    24    24    25   ar
    25    25    26   ar
    26    26    27    1
    27    27    28   ar
    28    28    29   ar
    29    29    30   ar
    30    30    31   ar
    31    31    32   ar
    32    26    22   ar
    33    32    27   ar
    34     7     2    1
    35     6     4    1
    36    13     8   ar
@<TRIPOS>MOLECULE
*****
 32 36 0 0 0
SMALL
GASTEIGER

@<TRIPOS>ATOM
      1 C         141.8410  137.7809  161.9531 C.3     1  UNL1        0.0730
      2 N         140.9307  138.0442  163.1159 N.3     1  UNL1       -0.2724
      3 C         139.5494  137.4885  163.2979 C.3     1  UNL1        0.0724
      4 C         139.0070  138.0104  164.5953 C.3     1  UNL1        0.0214
      5 C         138.7417  138.6776  165.9122 C.3     1  UNL1        0.0072
      6 C         140.0530  138.8887  165.2152 C.3     1  UNL1        0.0350
      7 C         141.2420  138.9096  164.3009 C.3     1  UNL1        0.0761
      8 C         140.6384  139.7983  166.2544 C.ar    1  UNL1       -0.0215
      9 C         142.1267  139.9463  166.3690 C.ar    1  UNL1       -0.0043
     10 C         142.7121  140.8559  167.4083 C.ar    1  UNL1        0.0035
     11 C         141.8092  141.6174  168.3330 C.ar    1  UNL1        0.0714
     12 C         140.3209  141.4693  168.2184 C.ar    1  UNL1        0.0035
     13 C         139.7355  140.5597  167.1791 C.ar    1  UNL1       -0.0043
     14 C         142.3946  142.5269  169.3722 C.3     1  UNL1        0.4186
     15 F         142.9800  143.4364  170.4115 F       1  UNL1       -0.1659
     16 F         141.1738  143.3955  169.2997 F       1  UNL1       -0.1659
     17 F         143.6154  141.6583  169.4448 F       1  UNL1       -0.1659
     18 C         143.3157  138.0211  162.0855 C.3     1  UNL1        0.0294
     19 C         144.0442  138.8094  161.0378 C.3     1  UNL1        0.0666
     20 S         143.6901  140.2475  160.7998 S.3     1  UNL1       -0.0756
     21 C         140.5842  141.2093  161.0779 C.3     1  UNL1        0.1340
     22 N         141.6918  141.5158  162.0420 N.ar    1  UNL1       -0.2884
     23 C         143.1194  141.0737  161.9141 C.ar    1  UNL1        0.1932
     24 N         143.8761  141.6028  163.0962 N.ar    1  UNL1       -0.1221
     25 N         142.9162  142.3719  163.9546 N.ar    1  UNL1       -0.1281
     26 C         141.5662  142.3181  163.3030 C.ar    1  UNL1        0.1698
     27 C         140.3109  142.9550  163.8216 C.ar    1  UNL1        0.0742
     28 C         139.0365  142.1658  163.8754 C.ar    1  UNL1        0.1052
     29 N         137.7813  142.8027  164.3939 N.ar    1  UNL1       -0.2223
     30 C         137.8006  144.2287  164.8587 C.ar    1  UNL1        0.1989
     31 N         139.0750  145.0179  164.8049 N.ar    1  UNL1       -0.2223
     32 C         140.3302  144.3811  164.2863 C.ar    1  UNL1        0.1052
@<TRIPOS>BOND
     1    21    22    1
     2    22    23   ar
     3    23    20    1
     4    20    19    1
     5    19    18    1
     6    18     1    1
     7     1     2    1
     8     2     3    1
     9     4     3    1
    10     4     5    1
    11     5     6    1
    12     6     8    1
    13     8     9   ar
    14     9    10   ar
    15    10    11   ar
    16    11    14    1
    17    14    15    1
    18    14    16    1
    19    14    17    1
    20    11    12   ar
    21    12    13   ar
    22     6     7    1
    23    23    24   ar
    24    24    25   ar
    25    25    26   ar
    26    26    27    1
    27    27    28   ar
    28    28    29   ar
    29    29    30   ar
    30    30    31   ar
    31    31    32   ar
    32    26    22   ar
    33    32    27   ar
    34     7     2    1
    35     6     4    1
    36    13     8   ar
@<TRIPOS>MOLECULE
*****
 32 36 0 0 0
SMALL
GASTEIGER

@<TRIPOS>ATOM
      1 C         142.9272  143.9868  161.7428 C.3     1  UNL1        0.0730
      2 N         143.1824  143.0205  162.8613 N.3     1  UNL1       -0.2724
      3 C         144.1033  141.8375  162.8117 C.3     1  UNL1        0.0724
      4 C         144.0515  141.1534  164.1455 C.3     1  UNL1        0.0214
      5 C         143.7960  140.6966  165.5512 C.3     1  UNL1        0.0072
      6 C         143.0985  141.9135  165.0196 C.3     1  UNL1        0.0350
      7 C         142.5614  143.0675  164.2259 C.3     1  UNL1        0.0761
      8 C         142.3318  142.2149  166.2731 C.ar    1  UNL1       -0.0215
      9 C         140.8711  142.5475  166.1971 C.ar    1  UNL1       -0.0043
     10 C         140.1042  142.8489  167.4506 C.ar    1  UNL1        0.0035
     11 C         140.7981  142.8177  168.7801 C.ar    1  UNL1        0.0714
     12 C         142.2589  142.4851  168.8561 C.ar    1  UNL1        0.0035
     13 C         143.0256  142.1837  167.6026 C.ar    1  UNL1       -0.0043
     14 C         140.0313  143.1191  170.0335 C.3     1  UNL1        0.4186
     15 F         139.2645  143.4205  171.2870 F       1  UNL1       -0.1659
     16 F         140.6660  144.4768  170.0953 F       1  UNL1       -0.1659
     17 F         139.3967  141.7614  169.9717 F       1  UNL1       -0.1659
     18 C         141.6389  144.7534  161.6932 C.3     1  UNL1        0.0294
     19 C         140.8367  144.7908  160.4263 C.3     1  UNL1        0.0666
     20 S         139.9769  143.6211  160.0483 S.3     1  UNL1       -0.0756
     21 C         140.8571  140.8339  161.4993 C.3     1  UNL1        0.1340
     22 N         139.6023  141.6103  161.7691 N.ar    1  UNL1       -0.2884
     23 C         139.1977  142.8915  161.1021 C.ar    1  UNL1        0.1932
     24 N         137.8772  143.3148  161.6739 N.ar    1  UNL1       -0.1221
     25 N         137.4657  142.2954  162.6942 N.ar    1  UNL1       -0.1281
     26 C         138.5319  141.2419  162.7531 C.ar    1  UNL1        0.1698
     27 C         138.5282  140.0323  163.6403 C.ar    1  UNL1        0.0742
     28 C         138.2305  140.1762  165.1033 C.ar    1  UNL1        0.1052
     29 N         138.2268  138.9666  165.9904 N.ar    1  UNL1       -0.2223
     30 C         138.5209  137.6132  165.4144 C.ar    1  UNL1        0.1989
     31 N         138.8186  137.4693  163.9514 N.ar    1  UNL1       -0.2223
     32 C         138.8223  138.6789  163.0643 C.ar    1  UNL1        0.1052
@<TRIPOS>BOND
     1    21    22    1
     2    22    23   ar
     3    23    20    1
     4    20    19    1
     5    19    18    1
     6    18     1    1
     7     1     2    1
     8     2     3    1
     9     4     3    1
    10     4     5    1
    11     5     6    1
    12     6     8    1
    13     8     9   ar
    14     9    10   ar
    15    10    11   ar
    16    11    14    1
    17    14    15    1
    18    14    16    1
    19    14    17    1
    20    11    12   ar
    21    12    13   ar
    22     6     7    1
    23    23    24   ar
    24    24    25   ar
    25    25    26   ar
    26    26    27    1
    27    27    28   ar
    28    28    29   ar
    29    29    30   ar
    30    30    31   ar
    31    31    32   ar
    32    26    22   ar
    33    32    27   ar
    34     7     2    1
    35     6     4    1
    36    13     8   ar
@<TRIPOS>MOLECULE
*****
 32 36 0 0 0
SMALL
GASTEIGER

@<TRIPOS>ATOM
      1 C         142.0461  143.5856  160.9300 C.3     1  UNL1        0.0730
      2 N         143.0846  142.9596  161.8129 N.3     1  UNL1       -0.2724
      3 C         144.5243  142.7339  161.4574 C.3     1  UNL1        0.0724
      4 C         145.1953  142.0841  162.6311 C.3     1  UNL1        0.0214
      5 C         145.5821  141.4540  163.9362 C.3     1  UNL1        0.0072
      6 C         144.1703  141.9082  163.7121 C.3     1  UNL1        0.0350
      7 C         142.8658  142.4493  163.2064 C.3     1  UNL1        0.0761
      8 C         143.6563  141.4929  165.0586 C.ar    1  UNL1       -0.0215
      9 C         143.5555  142.4996  166.1660 C.ar    1  UNL1       -0.0043
     10 C         143.0415  142.0843  167.5127 C.ar    1  UNL1        0.0035
     11 C         142.6283  140.6623  167.7519 C.ar    1  UNL1        0.0714
     12 C         142.7291  139.6556  166.6444 C.ar    1  UNL1        0.0035
     13 C         143.2431  140.0709  165.2978 C.ar    1  UNL1       -0.0043
     14 C         142.1143  140.2470  169.0985 C.3     1  UNL1        0.4186
     15 F         141.6003  139.8317  170.4451 F       1  UNL1       -0.1659
     16 F         143.2921  140.9074  169.7517 F       1  UNL1       -0.1659
     17 F         140.9366  139.5865  168.4452 F       1  UNL1       -0.1659
     18 C         141.5003  144.9432  161.2604 C.3     1  UNL1        0.0294
     19 C         140.0199  145.1831  161.2337 C.3     1  UNL1        0.0666
     20 S         139.2324  145.1552  162.5102 S.3     1  UNL1       -0.0756
     21 C         138.3916  142.0321  162.0763 C.3     1  UNL1        0.1340
     22 N         139.0518  142.6063  163.2947 N.ar    1  UNL1       -0.2884
     23 C         139.4382  144.0419  163.4941 C.ar    1  UNL1        0.1932
     24 N         140.0666  144.1686  164.8502 N.ar    1  UNL1       -0.1221
     25 N         140.0685  142.8115  165.4889 N.ar    1  UNL1       -0.1281
     26 C         139.4413  141.8459  164.5275 C.ar    1  UNL1        0.1698
     27 C         139.2391  140.3776  164.7585 C.ar    1  UNL1        0.0742
     28 C         139.9436  139.3777  163.8901 C.ar    1  UNL1        0.1052
     29 N         139.7413  137.9095  164.1211 N.ar    1  UNL1       -0.2223
     30 C         138.8346  137.4411  165.2205 C.ar    1  UNL1        0.1989
     31 N         138.1301  138.4409  166.0888 N.ar    1  UNL1       -0.2223
     32 C         138.3324  139.9091  165.8578 C.ar    1  UNL1        0.1052
@<TRIPOS>BOND
     1    21    22    1
     2    22    23   ar
     3    23    20    1
     4    20    19    1
     5    19    18    1
     6    18     1    1
     7     1     2    1
     8     2     3    1
     9     4     3    1
    10     4     5    1
    11     5     6    1
    12     6     8    1
    13     8     9   ar
    14     9    10   ar
    15    10    11   ar
    16    11    14    1
    17    14    15    1
    18    14    16    1
    19    14    17    1
    20    11    12   ar
    21    12    13   ar
    22     6     7    1
    23    23    24   ar
    24    24    25   ar
    25    25    26   ar
    26    26    27    1
    27    27    28   ar
    28    28    29   ar
    29    29    30   ar
    30    30    31   ar
    31    31    32   ar
    32    26    22   ar
    33    32    27   ar
    34     7     2    1
    35     6     4    1
    36    13     8   ar
@<TRIPOS>MOLECULE
*****
 32 36 0 0 0
SMALL
GASTEIGER

@<TRIPOS>ATOM
      1 C         144.1652  140.1983  161.0033 C.3     1  UNL1        0.0730
      2 N         144.1978  141.1818  162.1354 N.3     1  UNL1       -0.2724
      3 C         145.4264  141.6703  162.8439 C.3     1  UNL1        0.0724
      4 C         144.9955  142.6400  163.9041 C.3     1  UNL1        0.0214
      5 C         144.2763  143.5472  164.8578 C.3     1  UNL1        0.0072
      6 C         143.5005  142.7509  163.8508 C.3     1  UNL1        0.0350
      7 C         143.0076  141.8497  162.7577 C.3     1  UNL1        0.0761
      8 C         142.1481  143.2522  164.2626 C.ar    1  UNL1       -0.0215
      9 C         141.4635  144.3138  163.4536 C.ar    1  UNL1       -0.0043
     10 C         140.1110  144.8152  163.8654 C.ar    1  UNL1        0.0035
     11 C         139.4432  144.2550  165.0861 C.ar    1  UNL1        0.0714
     12 C         140.1279  143.1934  165.8951 C.ar    1  UNL1        0.0035
     13 C         141.4803  142.6921  165.4833 C.ar    1  UNL1       -0.0043
     14 C         138.0908  144.7564  165.4979 C.3     1  UNL1        0.4186
     15 F         136.7384  145.2578  165.9097 F       1  UNL1       -0.1659
     16 F         137.4601  143.9633  164.3920 F       1  UNL1       -0.1659
     17 F         138.7216  145.5495  166.6039 F       1  UNL1       -0.1659
     18 C         143.2500  139.0115  161.0671 C.3     1  UNL1        0.0294
     19 C         141.9898  138.9917  160.2538 C.3     1  UNL1        0.0666
     20 S         140.7000  138.5504  160.8799 S.3     1  UNL1       -0.0756
     21 C         139.6268  140.5183  163.2515 C.3     1  UNL1        0.1340
     22 N         140.1568  139.1268  163.4329 N.ar    1  UNL1       -0.2884
     23 C         140.6501  138.2223  162.3427 C.ar    1  UNL1        0.1932
     24 N         141.0847  136.9320  162.9722 N.ar    1  UNL1       -0.1221
     25 N         140.8600  137.0391  164.4513 N.ar    1  UNL1       -0.1281
     26 C         140.2865  138.3956  164.7360 C.ar    1  UNL1        0.1698
     27 C         139.9091  138.9275  166.0869 C.ar    1  UNL1        0.0742
     28 C         140.9213  139.6654  166.9121 C.ar    1  UNL1        0.1052
     29 N         140.5438  140.1972  168.2629 N.ar    1  UNL1       -0.2223
     30 C         139.1540  139.9911  168.7885 C.ar    1  UNL1        0.1989
     31 N         138.1418  139.2533  167.9633 N.ar    1  UNL1       -0.2223
     32 C         138.5193  138.7215  166.6125 C.ar    1  UNL1        0.1052
@<TRIPOS>BOND
     1    21    22    1
     2    22    23   ar
     3    23    20    1
     4    20    19    1
     5    19    18    1
     6    18     1    1
     7     1     2    1
     8     2     3    1
     9     4     3    1
    10     4     5    1
    11     5     6    1
    12     6     8    1
    13     8     9   ar
    14     9    10   ar
    15    10    11   ar
    16    11    14    1
    17    14    15    1
    18    14    16    1
    19    14    17    1
    20    11    12   ar
    21    12    13   ar
    22     6     7    1
    23    23    24   ar
    24    24    25   ar
    25    25    26   ar
    26    26    27    1
    27    27    28   ar
    28    28    29   ar
    29    29    30   ar
    30    30    31   ar
    31    31    32   ar
    32    26    22   ar
    33    32    27   ar
    34     7     2    1
    35     6     4    1
    36    13     8   ar
