@<TRIPOS>MOLECULE
*****
 28 30 0 0 0
SMALL
GASTEIGER

@<TRIPOS>ATOM
      1 N         144.0691  142.2187  159.8089 N.am    1  UNL1       -0.2448
      2 C         142.8827  143.1352  159.7598 C.2     1  UNL1        0.3079
      3 O         142.5961  143.9253  158.5173 O.2     1  UNL1       -0.2522
      4 N         141.9828  143.2616  160.9532 N.am    1  UNL1       -0.2844
      5 H         142.1708  142.7431  161.7686 H       1  UNL1        0.1513
      6 C         144.3556  141.4287  161.0513 C.ar    1  UNL1        0.0553
      7 C         143.8352  140.0283  161.1863 C.ar    1  UNL1        0.0158
      8 C         144.1217  139.2383  162.4288 C.ar    1  UNL1        0.0127
      9 C         144.9286  139.8486  163.5363 C.ar    1  UNL1        0.0578
     10 CL        145.2151  139.0585  164.7788 Cl      1  UNL1       -0.0822
     11 C         145.4490  141.2489  163.4013 C.ar    1  UNL1        0.0127
     12 C         145.1625  142.0390  162.1588 C.ar    1  UNL1        0.0158
     13 N         146.7688  141.8394  156.2287 N.3     1  UNL1       -0.2726
     14 C         145.5465  140.9772  156.3410 C.3     1  UNL1        0.0738
     15 C         144.6466  141.1037  157.5344 C.3     1  UNL1        0.0376
     16 C         144.9690  142.0923  158.6155 C.3     1  UNL1        0.0840
     17 C         146.1913  142.9544  158.5031 C.3     1  UNL1        0.0376
     18 C         147.0912  142.8280  157.3097 C.3     1  UNL1        0.0738
     19 C         149.1580  141.7353  155.2132 C.3     1  UNL1        0.0188
     20 C         147.6687  141.7129  155.0353 C.3     1  UNL1        0.0721
     21 C         140.7963  144.1782  160.9040 C.3     1  UNL1        0.1177
     22 C         139.8579  144.2534  162.0718 C.ar    1  UNL1       -0.0024
     23 C         138.5062  143.6079  161.9906 C.ar    1  UNL1       -0.0003
     24 C         137.5678  143.6832  163.1584 C.ar    1  UNL1        0.0294
     25 C         137.9811  144.4039  164.4074 C.ar    1  UNL1        0.1401
     26 F         137.0426  144.4791  165.5752 F       1  UNL1       -0.2042
     27 C         139.3326  145.0493  164.4886 C.ar    1  UNL1        0.0294
     28 C         140.2710  144.9741  163.3208 C.ar    1  UNL1       -0.0003
@<TRIPOS>BOND
     1    19    20    1
     2    20    13    1
     3    13    14    1
     4    14    15    1
     5    15    16    1
     6    16     1    1
     7     1     2   am
     8     2     3    2
     9     2     4   am
    10     4    21    1
    11    21    22    1
    12    22    23   ar
    13    23    24   ar
    14    24    25   ar
    15    25    26    1
    16    25    27   ar
    17    27    28   ar
    18     1     6    1
    19     6     7   ar
    20     7     8   ar
    21     8     9   ar
    22     9    10    1
    23     9    11   ar
    24    11    12   ar
    25    16    17    1
    26    17    18    1
    27    18    13    1
    28    28    22   ar
    29    12     6   ar
    30     4     5    1
@<TRIPOS>MOLECULE
*****
 28 30 0 0 0
SMALL
GASTEIGER

@<TRIPOS>ATOM
      1 N         141.2572  140.6257  162.4945 N.am    1  UNL1       -0.2448
      2 C         141.2802  139.9771  163.8468 C.2     1  UNL1        0.3079
      3 O         141.6352  138.5254  163.9765 O.2     1  UNL1       -0.2522
      4 N         140.9484  140.7802  165.0695 N.am    1  UNL1       -0.2844
      5 H         140.7155  141.7329  164.9845 H       1  UNL1        0.1513
      6 C         140.9023  142.0773  162.3649 C.ar    1  UNL1        0.0553
      7 C         139.4658  142.4895  162.2354 C.ar    1  UNL1        0.0158
      8 C         139.1109  143.9411  162.1058 C.ar    1  UNL1        0.0127
      9 C         140.1924  144.9805  162.1057 C.ar    1  UNL1        0.0578
     10 CL        139.8374  146.4322  161.9760 Cl      1  UNL1       -0.0822
     11 C         141.6288  144.5683  162.2352 C.ar    1  UNL1        0.0127
     12 C         141.9838  143.1167  162.3648 C.ar    1  UNL1        0.0158
     13 N         142.2527  138.2165  158.8264 N.3     1  UNL1       -0.2726
     14 C         140.8209  138.5028  159.1699 C.3     1  UNL1        0.0738
     15 C         140.4891  139.3058  160.3926 C.3     1  UNL1        0.0376
     16 C         141.5890  139.8226  161.2718 C.3     1  UNL1        0.0840
     17 C         143.0208  139.5363  160.9283 C.3     1  UNL1        0.0376
     18 C         143.3526  138.7332  159.7056 C.3     1  UNL1        0.0738
     19 C         141.4973  137.0147  156.6504 C.3     1  UNL1        0.0188
     20 C         142.5845  137.4134  157.6037 C.3     1  UNL1        0.0721
     21 C         140.9715  140.1315  166.4219 C.3     1  UNL1        0.1177
     22 C         140.5622  140.9126  167.6354 C.ar    1  UNL1       -0.0024
     23 C         139.8064  140.2381  168.7417 C.ar    1  UNL1       -0.0003
     24 C         139.3972  141.0191  169.9552 C.ar    1  UNL1        0.0294
     25 C         139.7437  142.4746  170.0623 C.ar    1  UNL1        0.1401
     26 F         139.3345  143.2557  171.2758 F       1  UNL1       -0.2042
     27 C         140.4995  143.1491  168.9560 C.ar    1  UNL1        0.0294
     28 C         140.9087  142.3680  167.7425 C.ar    1  UNL1       -0.0003
@<TRIPOS>BOND
     1    19    20    1
     2    20    13    1
     3    13    14    1
     4    14    15    1
     5    15    16    1
     6    16     1    1
     7     1     2   am
     8     2     3    2
     9     2     4   am
    10     4    21    1
    11    21    22    1
    12    22    23   ar
    13    23    24   ar
    14    24    25   ar
    15    25    26    1
    16    25    27   ar
    17    27    28   ar
    18     1     6    1
    19     6     7   ar
    20     7     8   ar
    21     8     9   ar
    22     9    10    1
    23     9    11   ar
    24    11    12   ar
    25    16    17    1
    26    17    18    1
    27    18    13    1
    28    28    22   ar
    29    12     6   ar
    30     4     5    1
@<TRIPOS>MOLECULE
*****
 28 30 0 0 0
SMALL
GASTEIGER

@<TRIPOS>ATOM
      1 N         140.5717  143.2953  160.4687 N.am    1  UNL1       -0.2448
      2 C         141.6643  142.2701  160.5385 C.2     1  UNL1        0.3079
      3 O         142.4372  141.9123  159.3037 O.2     1  UNL1       -0.2522
      4 N         141.9842  141.6025  161.8432 N.am    1  UNL1       -0.2844
      5 H         141.4770  141.8373  162.6536 H       1  UNL1        0.1513
      6 C         139.7989  143.6530  161.7035 C.ar    1  UNL1        0.0553
      7 C         138.4767  142.9994  161.9764 C.ar    1  UNL1        0.0158
      8 C         137.7039  143.3571  163.2112 C.ar    1  UNL1        0.0127
      9 C         138.2533  144.3685  164.1731 C.ar    1  UNL1        0.0578
     10 CL        137.4804  144.7262  165.4080 Cl      1  UNL1       -0.0822
     11 C         139.5754  145.0221  163.9002 C.ar    1  UNL1        0.0127
     12 C         140.3483  144.6644  162.6654 C.ar    1  UNL1        0.0158
     13 N         139.6121  145.2979  156.5548 N.3     1  UNL1       -0.2726
     14 C         140.4116  146.0266  157.5939 C.3     1  UNL1        0.0738
     15 C         140.7315  145.3590  158.8985 C.3     1  UNL1        0.0376
     16 C         140.2518  143.9629  159.1640 C.3     1  UNL1        0.0840
     17 C         139.4523  143.2342  158.1249 C.3     1  UNL1        0.0376
     18 C         139.1325  143.9017  156.8203 C.3     1  UNL1        0.0738
     19 C         138.8667  147.4036  155.2280 C.3     1  UNL1        0.0188
     20 C         139.2923  145.9655  155.2501 C.3     1  UNL1        0.0721
     21 C         143.0769  140.5772  161.9130 C.3     1  UNL1        0.1177
     22 C         143.3352  139.8425  163.1949 C.ar    1  UNL1       -0.0024
     23 C         142.2215  139.0983  163.8703 C.ar    1  UNL1       -0.0003
     24 C         142.4797  138.3636  165.1523 C.ar    1  UNL1        0.0294
     25 C         143.8516  138.3730  165.7589 C.ar    1  UNL1        0.1401
     26 F         144.1099  137.6383  167.0409 F       1  UNL1       -0.2042
     27 C         144.9652  139.1171  165.0835 C.ar    1  UNL1        0.0294
     28 C         144.7070  139.8519  163.8015 C.ar    1  UNL1       -0.0003
@<TRIPOS>BOND
     1    19    20    1
     2    20    13    1
     3    13    14    1
     4    14    15    1
     5    15    16    1
     6    16     1    1
     7     1     2   am
     8     2     3    2
     9     2     4   am
    10     4    21    1
    11    21    22    1
    12    22    23   ar
    13    23    24   ar
    14    24    25   ar
    15    25    26    1
    16    25    27   ar
    17    27    28   ar
    18     1     6    1
    19     6     7   ar
    20     7     8   ar
    21     8     9   ar
    22     9    10    1
    23     9    11   ar
    24    11    12   ar
    25    16    17    1
    26    17    18    1
    27    18    13    1
    28    28    22   ar
    29    12     6   ar
    30     4     5    1
@<TRIPOS>MOLECULE
*****
 28 30 0 0 0
SMALL
GASTEIGER

@<TRIPOS>ATOM
      1 N         141.7091  142.4466  162.6162 N.am    1  UNL1       -0.2448
      2 C         142.4809  142.8571  163.8351 C.2     1  UNL1        0.3079
      3 O         143.3276  144.0949  163.8052 O.2     1  UNL1       -0.2522
      4 N         142.4061  142.0297  165.0841 N.am    1  UNL1       -0.2844
      5 H         141.8504  141.2172  165.1038 H       1  UNL1        0.1513
      6 C         140.8624  141.2088  162.6463 C.ar    1  UNL1        0.0553
      7 C         139.4238  141.2940  163.0624 C.ar    1  UNL1        0.0158
      8 C         138.5772  140.0562  163.0925 C.ar    1  UNL1        0.0127
      9 C         139.1691  138.7331  162.7063 C.ar    1  UNL1        0.0578
     10 CL        138.3223  137.4953  162.7364 Cl      1  UNL1       -0.0822
     11 C         140.6076  138.6479  162.2902 C.ar    1  UNL1        0.0127
     12 C         141.4543  139.8857  162.2601 C.ar    1  UNL1        0.0158
     13 N         141.9335  144.9288  158.8695 N.3     1  UNL1       -0.2726
     14 C         142.8090  143.7205  159.0222 C.3     1  UNL1        0.0738
     15 C         142.7342  142.8931  160.2711 C.3     1  UNL1        0.0376
     16 C         141.7839  143.2740  161.3673 C.3     1  UNL1        0.0840
     17 C         140.9084  144.4824  161.2146 C.3     1  UNL1        0.0376
     18 C         140.9832  145.3097  159.9657 C.3     1  UNL1        0.0738
     19 C         140.7617  146.0501  156.8398 C.3     1  UNL1        0.0188
     20 C         142.0083  145.7562  157.6205 C.3     1  UNL1        0.0721
     21 C         143.1780  142.4402  166.3030 C.3     1  UNL1        0.1177
     22 C         142.5378  142.3629  167.6574 C.ar    1  UNL1       -0.0024
     23 C         141.0436  142.4015  167.7840 C.ar    1  UNL1       -0.0003
     24 C         140.4035  142.3242  169.1383 C.ar    1  UNL1        0.0294
     25 C         141.2575  142.2083  170.3660 C.ar    1  UNL1        0.1401
     26 F         140.6173  142.1310  171.7204 F       1  UNL1       -0.2042
     27 C         142.7516  142.1696  170.2394 C.ar    1  UNL1        0.0294
     28 C         143.3918  142.2469  168.8850 C.ar    1  UNL1       -0.0003
@<TRIPOS>BOND
     1    19    20    1
     2    20    13    1
     3    13    14    1
     4    14    15    1
     5    15    16    1
     6    16     1    1
     7     1     2   am
     8     2     3    2
     9     2     4   am
    10     4    21    1
    11    21    22    1
    12    22    23   ar
    13    23    24   ar
    14    24    25   ar
    15    25    26    1
    16    25    27   ar
    17    27    28   ar
    18     1     6    1
    19     6     7   ar
    20     7     8   ar
    21     8     9   ar
    22     9    10    1
    23     9    11   ar
    24    11    12   ar
    25    16    17    1
    26    17    18    1
    27    18    13    1
    28    28    22   ar
    29    12     6   ar
    30     4     5    1
@<TRIPOS>MOLECULE
*****
 28 30 0 0 0
SMALL
GASTEIGER

@<TRIPOS>ATOM
      1 N         141.1585  138.9946  159.3183 N.am    1  UNL1       -0.2448
      2 C         141.6143  140.4140  159.1518 C.2     1  UNL1        0.3079
      3 O         142.1913  140.8679  157.8437 O.2     1  UNL1       -0.2522
      4 N         141.4931  141.3794  160.2934 N.am    1  UNL1       -0.2844
      5 H         141.1144  141.0814  161.1520 H       1  UNL1        0.1513
      6 C         140.5815  138.5407  160.6263 C.ar    1  UNL1        0.0553
      7 C         139.1007  138.6074  160.8563 C.ar    1  UNL1        0.0158
      8 C         138.5237  138.1535  162.1643 C.ar    1  UNL1        0.0127
      9 C         139.4275  137.6329  163.2424 C.ar    1  UNL1        0.0578
     10 CL        138.8504  137.1790  164.5505 Cl      1  UNL1       -0.0822
     11 C         140.9082  137.5662  163.0124 C.ar    1  UNL1        0.0127
     12 C         141.4853  138.0201  161.7044 C.ar    1  UNL1        0.0158
     13 N         141.5222  136.0984  155.8934 N.3     1  UNL1       -0.2726
     14 C         140.2516  136.8709  156.0907 C.3     1  UNL1        0.0738
     15 C         140.1304  137.8363  157.2323 C.3     1  UNL1        0.0376
     16 C         141.2797  138.0292  158.1766 C.3     1  UNL1        0.0840
     17 C         142.5503  137.2567  157.9793 C.3     1  UNL1        0.0376
     18 C         142.6715  136.2913  156.8377 C.3     1  UNL1        0.0738
     19 C         141.7770  133.6638  155.0230 C.3     1  UNL1        0.0188
     20 C         141.6434  135.1330  154.7518 C.3     1  UNL1        0.0721
     21 C         141.9489  142.7988  160.1270 C.3     1  UNL1        0.1177
     22 C         142.4868  143.5567  161.3043 C.ar    1  UNL1       -0.0024
     23 C         141.5818  144.4538  162.0958 C.ar    1  UNL1       -0.0003
     24 C         142.1197  145.2118  163.2731 C.ar    1  UNL1        0.0294
     25 C         143.5625  145.0726  163.6591 C.ar    1  UNL1        0.1401
     26 F         144.1004  145.8306  164.8364 F       1  UNL1       -0.2042
     27 C         144.4674  144.1755  162.8677 C.ar    1  UNL1        0.0294
     28 C         143.9296  143.4176  161.6903 C.ar    1  UNL1       -0.0003
@<TRIPOS>BOND
     1    19    20    1
     2    20    13    1
     3    13    14    1
     4    14    15    1
     5    15    16    1
     6    16     1    1
     7     1     2   am
     8     2     3    2
     9     2     4   am
    10     4    21    1
    11    21    22    1
    12    22    23   ar
    13    23    24   ar
    14    24    25   ar
    15    25    26    1
    16    25    27   ar
    17    27    28   ar
    18     1     6    1
    19     6     7   ar
    20     7     8   ar
    21     8     9   ar
    22     9    10    1
    23     9    11   ar
    24    11    12   ar
    25    16    17    1
    26    17    18    1
    27    18    13    1
    28    28    22   ar
    29    12     6   ar
    30     4     5    1
@<TRIPOS>MOLECULE
*****
 28 30 0 0 0
SMALL
GASTEIGER

@<TRIPOS>ATOM
      1 N         141.3588  139.5013  160.2209 N.am    1  UNL1       -0.2448
      2 C         141.4971  138.8807  161.5794 C.2     1  UNL1        0.3079
      3 O         141.5395  137.3879  161.7213 O.2     1  UNL1       -0.2522
      4 N         141.5930  139.7527  162.7961 N.am    1  UNL1       -0.2844
      5 H         141.5652  140.7324  162.7030 H       1  UNL1        0.1513
      6 C         141.3165  140.9939  160.0791 C.ar    1  UNL1        0.0553
      7 C         140.0089  141.7209  160.1884 C.ar    1  UNL1        0.0158
      8 C         139.9665  143.2136  160.0466 C.ar    1  UNL1        0.0127
      9 C         141.2317  143.9793  159.7954 C.ar    1  UNL1        0.0578
     10 CL        141.1892  145.4720  159.6536 Cl      1  UNL1       -0.0822
     11 C         142.5392  143.2524  159.6861 C.ar    1  UNL1        0.0127
     12 C         142.5816  141.7597  159.8279 C.ar    1  UNL1        0.0158
     13 N         141.0711  136.8852  156.5708 N.3     1  UNL1       -0.2726
     14 C         142.3909  137.0695  157.2593 C.3     1  UNL1        0.0738
     15 C         142.4868  137.9415  158.4760 C.3     1  UNL1        0.0376
     16 C         141.2629  138.6293  159.0042 C.3     1  UNL1        0.0840
     17 C         139.9431  138.4450  158.3157 C.3     1  UNL1        0.0376
     18 C         139.8472  137.5729  157.0990 C.3     1  UNL1        0.0738
     19 C         141.9864  134.9288  155.1270 C.3     1  UNL1        0.0188
     20 C         140.9752  136.0132  155.3541 C.3     1  UNL1        0.0721
     21 C         141.7313  139.1320  164.1547 C.3     1  UNL1        0.1177
     22 C         140.5127  138.8839  164.9935 C.ar    1  UNL1       -0.0024
     23 C         140.1621  139.8285  166.1048 C.ar    1  UNL1       -0.0003
     24 C         138.9435  139.5804  166.9435 C.ar    1  UNL1        0.0294
     25 C         138.0755  138.3877  166.6709 C.ar    1  UNL1        0.1401
     26 F         136.8569  138.1395  167.5097 F       1  UNL1       -0.2042
     27 C         138.4262  137.4432  165.5597 C.ar    1  UNL1        0.0294
     28 C         139.6448  137.6913  164.7210 C.ar    1  UNL1       -0.0003
@<TRIPOS>BOND
     1    19    20    1
     2    20    13    1
     3    13    14    1
     4    14    15    1
     5    15    16    1
     6    16     1    1
     7     1     2   am
     8     2     3    2
     9     2     4   am
    10     4    21    1
    11    21    22    1
    12    22    23   ar
    13    23    24   ar
    14    24    25   ar
    15    25    26    1
    16    25    27   ar
    17    27    28   ar
    18     1     6    1
    19     6     7   ar
    20     7     8   ar
    21     8     9   ar
    22     9    10    1
    23     9    11   ar
    24    11    12   ar
    25    16    17    1
    26    17    18    1
    27    18    13    1
    28    28    22   ar
    29    12     6   ar
    30     4     5    1
@<TRIPOS>MOLECULE
*****
 28 30 0 0 0
SMALL
GASTEIGER

@<TRIPOS>ATOM
      1 N         139.9598  140.8655  163.8235 N.am    1  UNL1       -0.2448
      2 C         139.7287  139.7270  162.8747 C.2     1  UNL1        0.3079
      3 O         139.8139  138.3122  163.3658 O.2     1  UNL1       -0.2522
      4 N         139.4125  140.0032  161.4346 N.am    1  UNL1       -0.2844
      5 H         139.3565  140.9318  161.1123 H       1  UNL1        0.1513
      6 C         139.8747  142.2802  163.3323 C.ar    1  UNL1        0.0553
      7 C         141.0979  142.9629  162.7959 C.ar    1  UNL1        0.0158
      8 C         141.0128  144.3776  162.3047 C.ar    1  UNL1        0.0127
      9 C         139.7044  145.1097  162.3499 C.ar    1  UNL1        0.0578
     10 CL        139.6192  146.5245  161.8587 Cl      1  UNL1       -0.0822
     11 C         138.4811  144.4272  162.8863 C.ar    1  UNL1        0.0127
     12 C         138.5663  143.0124  163.3775 C.ar    1  UNL1        0.0158
     13 N         140.9087  140.0369  168.1436 N.3     1  UNL1       -0.2726
     14 C         139.4834  140.0404  167.6761 C.3     1  UNL1        0.0738
     15 C         139.1672  140.3166  166.2360 C.3     1  UNL1        0.0376
     16 C         140.2761  140.5893  165.2635 C.3     1  UNL1        0.0840
     17 C         141.7014  140.5858  165.7311 C.3     1  UNL1        0.0376
     18 C         142.0176  140.3096  167.1711 C.3     1  UNL1        0.0738
     19 C         142.4667  139.0016  169.9465 C.3     1  UNL1        0.0188
     20 C         141.2250  139.7607  169.5836 C.3     1  UNL1        0.0721
     21 C         139.1813  138.8646  160.4858 C.3     1  UNL1        0.1177
     22 C         140.2524  138.4702  159.5125 C.ar    1  UNL1       -0.0024
     23 C         141.6770  138.3600  159.9691 C.ar    1  UNL1       -0.0003
     24 C         142.7481  137.9656  158.9958 C.ar    1  UNL1        0.0294
     25 C         142.3946  137.6814  157.5660 C.ar    1  UNL1        0.1401
     26 F         143.4657  137.2871  156.5928 F       1  UNL1       -0.2042
     27 C         140.9700  137.7917  157.1095 C.ar    1  UNL1        0.0294
     28 C         139.8989  138.1860  158.0828 C.ar    1  UNL1       -0.0003
@<TRIPOS>BOND
     1    19    20    1
     2    20    13    1
     3    13    14    1
     4    14    15    1
     5    15    16    1
     6    16     1    1
     7     1     2   am
     8     2     3    2
     9     2     4   am
    10     4    21    1
    11    21    22    1
    12    22    23   ar
    13    23    24   ar
    14    24    25   ar
    15    25    26    1
    16    25    27   ar
    17    27    28   ar
    18     1     6    1
    19     6     7   ar
    20     7     8   ar
    21     8     9   ar
    22     9    10    1
    23     9    11   ar
    24    11    12   ar
    25    16    17    1
    26    17    18    1
    27    18    13    1
    28    28    22   ar
    29    12     6   ar
    30     4     5    1
@<TRIPOS>MOLECULE
*****
 28 30 0 0 0
SMALL
GASTEIGER

@<TRIPOS>ATOM
      1 N         143.5102  141.5788  159.0912 N.am    1  UNL1       -0.2448
      2 C         142.9688  140.1889  159.2497 C.2     1  UNL1        0.3079
      3 O         143.0058  139.2333  158.0941 O.2     1  UNL1       -0.2522
      4 N         142.3903  139.7547  160.5638 N.am    1  UNL1       -0.2844
      5 H         142.3660  140.3819  161.3223 H       1  UNL1        0.1513
      6 C         143.4732  142.5344  160.2468 C.ar    1  UNL1        0.0553
      7 C         142.2812  143.4227  160.4476 C.ar    1  UNL1        0.0158
      8 C         142.2442  144.3782  161.6032 C.ar    1  UNL1        0.0127
      9 C         143.3991  144.4456  162.5580 C.ar    1  UNL1        0.0578
     10 CL        143.3620  145.4013  163.7137 Cl      1  UNL1       -0.0822
     11 C         144.5910  143.5574  162.3573 C.ar    1  UNL1        0.0127
     12 C         144.6281  142.6017  161.2016 C.ar    1  UNL1        0.0158
     13 N         145.2456  142.8815  155.1490 N.3     1  UNL1       -0.2726
     14 C         143.7653  142.9583  155.3788 C.3     1  UNL1        0.0738
     15 C         143.1869  142.5240  156.6929 C.3     1  UNL1        0.0376
     16 C         144.0887  142.0130  157.7771 C.3     1  UNL1        0.0840
     17 C         145.5689  141.9363  157.5473 C.3     1  UNL1        0.0376
     18 C         146.1474  142.3705  156.2332 C.3     1  UNL1        0.0738
     19 C         146.8338  144.4241  153.7895 C.3     1  UNL1        0.0188
     20 C         145.8240  143.3158  153.8349 C.3     1  UNL1        0.0721
     21 C         141.8489  138.3648  160.7222 C.3     1  UNL1        0.1177
     22 C         141.0398  138.0087  161.9341 C.ar    1  UNL1       -0.0024
     23 C         139.5414  138.0380  161.8707 C.ar    1  UNL1       -0.0003
     24 C         138.7324  137.6819  163.0826 C.ar    1  UNL1        0.0294
     25 C         139.4218  137.2965  164.3579 C.ar    1  UNL1        0.1401
     26 F         138.6127  136.9405  165.5698 F       1  UNL1       -0.2042
     27 C         140.9201  137.2673  164.4213 C.ar    1  UNL1        0.0294
     28 C         141.7292  137.6234  163.2094 C.ar    1  UNL1       -0.0003
@<TRIPOS>BOND
     1    19    20    1
     2    20    13    1
     3    13    14    1
     4    14    15    1
     5    15    16    1
     6    16     1    1
     7     1     2   am
     8     2     3    2
     9     2     4   am
    10     4    21    1
    11    21    22    1
    12    22    23   ar
    13    23    24   ar
    14    24    25   ar
    15    25    26    1
    16    25    27   ar
    17    27    28   ar
    18     1     6    1
    19     6     7   ar
    20     7     8   ar
    21     8     9   ar
    22     9    10    1
    23     9    11   ar
    24    11    12   ar
    25    16    17    1
    26    17    18    1
    27    18    13    1
    28    28    22   ar
    29    12     6   ar
    30     4     5    1
@<TRIPOS>MOLECULE
*****
 28 30 0 0 0
SMALL
GASTEIGER

@<TRIPOS>ATOM
      1 N         141.4532  142.9012  160.4858 N.am    1  UNL1       -0.2448
      2 C         140.8187  141.5568  160.6855 C.2     1  UNL1        0.3079
      3 O         140.1048  140.8880  159.5483 O.2     1  UNL1       -0.2522
      4 N         140.8979  140.8812  162.0224 N.am    1  UNL1       -0.2844
      5 H         141.3665  141.3201  162.7687 H       1  UNL1        0.1513
      6 C         142.1670  143.5699  161.6230 C.ar    1  UNL1        0.0553
      7 C         143.6168  143.2780  161.8739 C.ar    1  UNL1        0.0158
      8 C         144.3307  143.9467  163.0111 C.ar    1  UNL1        0.0127
      9 C         143.5948  144.9074  163.8974 C.ar    1  UNL1        0.0578
     10 CL        144.3087  145.5761  165.0346 Cl      1  UNL1       -0.0822
     11 C         142.1450  145.1993  163.6465 C.ar    1  UNL1        0.0127
     12 C         141.4311  144.5306  162.5093 C.ar    1  UNL1        0.0158
     13 N         141.2153  144.9282  156.4752 N.3     1  UNL1       -0.2726
     14 C         142.4679  144.2084  156.8786 C.3     1  UNL1        0.0738
     15 C         142.5472  143.5327  158.2155 C.3     1  UNL1        0.0376
     16 C         141.3739  143.5769  159.1490 C.3     1  UNL1        0.0840
     17 C         140.1213  144.2967  158.7455 C.3     1  UNL1        0.0376
     18 C         140.0420  144.9724  157.4087 C.3     1  UNL1        0.0738
     19 C         140.3878  146.8959  154.9942 C.3     1  UNL1        0.0188
     20 C         141.1360  145.6039  155.1384 C.3     1  UNL1        0.0721
     21 C         140.2633  139.5367  162.2220 C.3     1  UNL1        0.1177
     22 C         139.5523  139.2262  163.5057 C.ar    1  UNL1       -0.0024
     23 C         138.9078  140.3292  164.2919 C.ar    1  UNL1       -0.0003
     24 C         138.1967  140.0187  165.5756 C.ar    1  UNL1        0.0294
     25 C         138.1302  138.6052  166.0732 C.ar    1  UNL1        0.1401
     26 F         137.4192  138.2946  167.3570 F       1  UNL1       -0.2042
     27 C         138.7747  137.5022  165.2871 C.ar    1  UNL1        0.0294
     28 C         139.4858  137.8127  164.0034 C.ar    1  UNL1       -0.0003
@<TRIPOS>BOND
     1    19    20    1
     2    20    13    1
     3    13    14    1
     4    14    15    1
     5    15    16    1
     6    16     1    1
     7     1     2   am
     8     2     3    2
     9     2     4   am
    10     4    21    1
    11    21    22    1
    12    22    23   ar
    13    23    24   ar
    14    24    25   ar
    15    25    26    1
    16    25    27   ar
    17    27    28   ar
    18     1     6    1
    19     6     7   ar
    20     7     8   ar
    21     8     9   ar
    22     9    10    1
    23     9    11   ar
    24    11    12   ar
    25    16    17    1
    26    17    18    1
    27    18    13    1
    28    28    22   ar
    29    12     6   ar
    30     4     5    1
