@<TRIPOS>MOLECULE
*****
 28 30 0 0 0
SMALL
GASTEIGER

@<TRIPOS>ATOM
      1 C         137.8615  140.6145  162.3731 C.ar    1  UNL1        0.2543
      2 N         138.1320  140.2375  163.7996 N.ar    1  UNL1       -0.1931
      3 C         138.6022  138.8527  164.1330 C.ar    1  UNL1        0.1558
      4 C         138.8019  137.8449  163.0400 C.ar    1  UNL1        0.1342
      5 N         138.5315  138.2220  161.6136 N.ar    1  UNL1       -0.2263
      6 C         138.0612  139.6068  161.2802 C.ar    1  UNL1        0.2025
      7 N         138.8727  138.4756  165.5594 N.pl3   1  UNL1       -0.2820
      8 H         138.5036  137.6398  165.9261 H       1  UNL1        0.1551
      9 C         139.7056  139.3719  166.4271 C.ar    1  UNL1        0.1333
     10 C         139.1724  139.8447  167.7470 C.ar    1  UNL1        0.0345
     11 C         140.0052  140.7410  168.6147 C.ar    1  UNL1        0.0051
     12 C         139.4721  141.2139  169.9347 C.ar    1  UNL1        0.0002
     13 C         140.3049  142.1102  170.8023 C.ar    1  UNL1        0.0009
     14 C         141.6710  142.5337  170.3501 C.ar    1  UNL1        0.0114
     15 C         142.2042  142.0609  169.0303 C.ar    1  UNL1        0.0591
     16 CL        143.5703  142.4845  168.5781 Cl      1  UNL1       -0.0822
     17 C         141.3713  141.1646  168.1625 C.ar    1  UNL1        0.0298
     18 C         141.9045  140.6918  166.8426 C.ar    1  UNL1        0.1011
     19 N         141.0716  139.7955  165.9749 N.ar    1  UNL1       -0.2290
     20 C         137.7907  139.9839  159.8538 C.1     1  UNL1        0.1246
     21 N         137.5202  140.3611  158.4273 N.1     1  UNL1       -0.1891
     22 O         137.3912  141.9993  162.0397 O.3     1  UNL1       -0.4610
     23 C         137.6948  143.9385  163.7419 C.3     1  UNL1        0.0488
     24 C         138.1609  143.1907  162.5280 C.3     1  UNL1        0.1836
     25 C         139.3966  143.6341  161.8025 C.3     1  UNL1        0.1163
     26 N         140.1288  144.8641  162.2509 N.3     1  UNL1       -0.2673
     27 C         141.2563  144.7494  163.2335 C.3     1  UNL1        0.0898
     28 C         139.7336  146.2088  161.7166 C.3     1  UNL1        0.0898
@<TRIPOS>BOND
     1    24    23    1
     2    24    25    1
     3    25    26    1
     4    26    27    1
     5    26    28    1
     6    24    22    1
     7    22     1    1
     8     1     2   ar
     9     2     3   ar
    10     3     7    1
    11     7     9    1
    12     9    10   ar
    13    10    11   ar
    14    11    12   ar
    15    12    13   ar
    16    13    14   ar
    17    14    15   ar
    18    15    16    1
    19    15    17   ar
    20    17    18   ar
    21    18    19   ar
    22     3     4   ar
    23     4     5   ar
    24     5     6   ar
    25     6    20    1
    26    20    21    3
    27     6     1   ar
    28    19     9   ar
    29    17    11   ar
    30     7     8    1
@<TRIPOS>MOLECULE
*****
 28 30 0 0 0
SMALL
GASTEIGER

@<TRIPOS>ATOM
      1 C         137.8266  140.3648  162.6885 C.ar    1  UNL1        0.2543
      2 N         137.7229  140.2308  164.1790 N.ar    1  UNL1       -0.1931
      3 C         138.2738  139.0147  164.8628 C.ar    1  UNL1        0.1558
      4 C         138.9285  137.9326  164.0561 C.ar    1  UNL1        0.1342
      5 N         139.0321  138.0667  162.5657 N.ar    1  UNL1       -0.2263
      6 C         138.4812  139.2828  161.8819 C.ar    1  UNL1        0.2025
      7 N         138.1701  138.8806  166.3531 N.pl3   1  UNL1       -0.2820
      8 H         137.4681  138.3150  166.7488 H       1  UNL1        0.1551
      9 C         139.1360  139.6082  167.2407 C.ar    1  UNL1        0.1333
     10 C         140.3346  140.2873  166.6471 C.ar    1  UNL1        0.0345
     11 C         141.3004  141.0148  167.5347 C.ar    1  UNL1        0.0051
     12 C         142.4991  141.6939  166.9412 C.ar    1  UNL1        0.0002
     13 C         143.4649  142.4215  167.8287 C.ar    1  UNL1        0.0009
     14 C         143.2322  142.4700  169.3097 C.ar    1  UNL1        0.0114
     15 C         142.0336  141.7910  169.9032 C.ar    1  UNL1        0.0591
     16 CL        141.8009  141.8395  171.3843 Cl      1  UNL1       -0.0822
     17 C         141.0677  141.0634  169.0157 C.ar    1  UNL1        0.0298
     18 C         139.8691  140.3843  169.6092 C.ar    1  UNL1        0.1011
     19 N         138.9033  139.6567  168.7217 N.ar    1  UNL1       -0.2290
     20 C         138.5849  139.4169  160.3916 C.1     1  UNL1        0.1246
     21 N         138.6886  139.5510  158.9012 N.1     1  UNL1       -0.1891
     22 O         137.2757  141.5810  162.0048 O.3     1  UNL1       -0.4610
     23 C         139.0550  142.9683  160.7166 C.3     1  UNL1        0.0488
     24 C         138.1176  142.8159  161.8776 C.3     1  UNL1        0.1836
     25 C         138.0220  143.8985  162.9115 C.3     1  UNL1        0.1163
     26 N         138.9337  143.8808  164.1025 N.3     1  UNL1       -0.2673
     27 C         138.6503  144.7694  165.2772 C.3     1  UNL1        0.0898
     28 C         140.1289  142.9746  164.1187 C.3     1  UNL1        0.0898
@<TRIPOS>BOND
     1    24    23    1
     2    24    25    1
     3    25    26    1
     4    26    27    1
     5    26    28    1
     6    24    22    1
     7    22     1    1
     8     1     2   ar
     9     2     3   ar
    10     3     7    1
    11     7     9    1
    12     9    10   ar
    13    10    11   ar
    14    11    12   ar
    15    12    13   ar
    16    13    14   ar
    17    14    15   ar
    18    15    16    1
    19    15    17   ar
    20    17    18   ar
    21    18    19   ar
    22     3     4   ar
    23     4     5   ar
    24     5     6   ar
    25     6    20    1
    26    20    21    3
    27     6     1   ar
    28    19     9   ar
    29    17    11   ar
    30     7     8    1
@<TRIPOS>MOLECULE
*****
 28 30 0 0 0
SMALL
GASTEIGER

@<TRIPOS>ATOM
      1 C         143.6688  143.6335  161.9872 C.ar    1  UNL1        0.2543
      2 N         143.6235  143.8264  163.4741 N.ar    1  UNL1       -0.1931
      3 C         144.5066  143.0033  164.3645 C.ar    1  UNL1        0.1558
      4 C         145.4350  141.9873  163.7679 C.ar    1  UNL1        0.1342
      5 N         145.4803  141.7945  162.2810 N.ar    1  UNL1       -0.2263
      6 C         144.5972  142.6176  161.3907 C.ar    1  UNL1        0.2025
      7 N         144.4613  143.1962  165.8513 N.pl3   1  UNL1       -0.2820
      8 H         145.1319  143.7645  166.2946 H       1  UNL1        0.1551
      9 C         143.3942  142.5231  166.6627 C.ar    1  UNL1        0.1333
     10 C         142.2843  141.7836  165.9763 C.ar    1  UNL1        0.0345
     11 C         141.2173  141.1106  166.7877 C.ar    1  UNL1        0.0051
     12 C         140.1073  140.3711  166.1013 C.ar    1  UNL1        0.0002
     13 C         139.0403  139.6981  166.9127 C.ar    1  UNL1        0.0009
     14 C         139.0833  139.7645  168.4106 C.ar    1  UNL1        0.0114
     15 C         140.1932  140.5039  169.0971 C.ar    1  UNL1        0.0591
     16 CL        140.2361  140.5704  170.5950 Cl      1  UNL1       -0.0822
     17 C         141.2602  141.1770  168.2857 C.ar    1  UNL1        0.0298
     18 C         142.3701  141.9165  168.9721 C.ar    1  UNL1        0.1011
     19 N         143.4371  142.5895  168.1607 N.ar    1  UNL1       -0.2290
     20 C         144.6425  142.4247  159.9039 C.1     1  UNL1        0.1246
     21 N         144.6878  142.2319  158.4170 N.1     1  UNL1       -0.1891
     22 O         142.7858  144.4566  161.0969 O.3     1  UNL1       -0.4610
     23 C         141.1135  143.6491  159.2799 C.3     1  UNL1        0.0488
     24 C         141.4257  143.9517  160.7155 C.3     1  UNL1        0.1836
     25 C         140.3780  143.7494  161.7696 C.3     1  UNL1        0.1163
     26 N         139.7469  144.9352  162.4372 N.3     1  UNL1       -0.2673
     27 C         139.7550  146.2716  161.7561 C.3     1  UNL1        0.0898
     28 C         139.1077  144.7846  163.7858 C.3     1  UNL1        0.0898
@<TRIPOS>BOND
     1    24    23    1
     2    24    25    1
     3    25    26    1
     4    26    27    1
     5    26    28    1
     6    24    22    1
     7    22     1    1
     8     1     2   ar
     9     2     3   ar
    10     3     7    1
    11     7     9    1
    12     9    10   ar
    13    10    11   ar
    14    11    12   ar
    15    12    13   ar
    16    13    14   ar
    17    14    15   ar
    18    15    16    1
    19    15    17   ar
    20    17    18   ar
    21    18    19   ar
    22     3     4   ar
    23     4     5   ar
    24     5     6   ar
    25     6    20    1
    26    20    21    3
    27     6     1   ar
    28    19     9   ar
    29    17    11   ar
    30     7     8    1
@<TRIPOS>MOLECULE
*****
 28 30 0 0 0
SMALL
GASTEIGER

@<TRIPOS>ATOM
      1 C         138.1150  141.6805  161.4278 C.ar    1  UNL1        0.2543
      2 N         138.1018  140.7100  162.5715 N.ar    1  UNL1       -0.1931
      3 C         138.5839  139.3043  162.3679 C.ar    1  UNL1        0.1558
      4 C         139.0792  138.8690  161.0205 C.ar    1  UNL1        0.1342
      5 N         139.0923  139.8395  159.8769 N.ar    1  UNL1       -0.2263
      6 C         138.6103  141.2452  160.0805 C.ar    1  UNL1        0.2025
      7 N         138.5707  138.3338  163.5116 N.pl3   1  UNL1       -0.2820
      8 H         138.3327  137.3915  163.3548 H       1  UNL1        0.1551
      9 C         138.9200  138.7991  164.8942 C.ar    1  UNL1        0.1333
     10 C         140.3170  139.2496  165.2032 C.ar    1  UNL1        0.0345
     11 C         140.6663  139.7149  166.5858 C.ar    1  UNL1        0.0051
     12 C         142.0633  140.1654  166.8949 C.ar    1  UNL1        0.0002
     13 C         142.4126  140.6307  168.2774 C.ar    1  UNL1        0.0009
     14 C         141.3650  140.6455  169.3509 C.ar    1  UNL1        0.0114
     15 C         139.9681  140.1950  169.0418 C.ar    1  UNL1        0.0591
     16 CL        138.9205  140.2098  170.1153 Cl      1  UNL1       -0.0822
     17 C         139.6187  139.7297  167.6592 C.ar    1  UNL1        0.0298
     18 C         138.2218  139.2792  167.3501 C.ar    1  UNL1        0.1011
     19 N         137.8724  138.8139  165.9676 N.ar    1  UNL1       -0.2290
     20 C         138.6235  142.2157  158.9369 C.1     1  UNL1        0.1246
     21 N         138.6367  143.1862  157.7931 N.1     1  UNL1       -0.1891
     22 O         137.6329  143.0863  161.6314 O.3     1  UNL1       -0.4610
     23 C         137.7478  143.8126  164.1233 C.3     1  UNL1        0.0488
     24 C         138.2353  143.9369  162.7102 C.3     1  UNL1        0.1836
     25 C         139.3252  144.9117  162.3758 C.3     1  UNL1        0.1163
     26 N         140.3681  144.5513  161.3598 N.3     1  UNL1       -0.2673
     27 C         140.4376  145.2960  160.0596 C.3     1  UNL1        0.0898
     28 C         141.3416  143.4460  161.6439 C.3     1  UNL1        0.0898
@<TRIPOS>BOND
     1    24    23    1
     2    24    25    1
     3    25    26    1
     4    26    27    1
     5    26    28    1
     6    24    22    1
     7    22     1    1
     8     1     2   ar
     9     2     3   ar
    10     3     7    1
    11     7     9    1
    12     9    10   ar
    13    10    11   ar
    14    11    12   ar
    15    12    13   ar
    16    13    14   ar
    17    14    15   ar
    18    15    16    1
    19    15    17   ar
    20    17    18   ar
    21    18    19   ar
    22     3     4   ar
    23     4     5   ar
    24     5     6   ar
    25     6    20    1
    26    20    21    3
    27     6     1   ar
    28    19     9   ar
    29    17    11   ar
    30     7     8    1
@<TRIPOS>MOLECULE
*****
 28 30 0 0 0
SMALL
GASTEIGER

@<TRIPOS>ATOM
      1 C         140.0249  140.4708  167.2248 C.ar    1  UNL1        0.2543
      2 N         141.0660  140.9851  166.2752 N.ar    1  UNL1       -0.1931
      3 C         142.1793  141.8536  166.7813 C.ar    1  UNL1        0.1558
      4 C         142.2515  142.2079  168.2371 C.ar    1  UNL1        0.1342
      5 N         141.2105  141.6936  169.1867 N.ar    1  UNL1       -0.2263
      6 C         140.0972  140.8251  168.6806 C.ar    1  UNL1        0.2025
      7 N         143.2204  142.3678  165.8317 N.pl3   1  UNL1       -0.2820
      8 H         144.1699  142.3615  166.0917 H       1  UNL1        0.1551
      9 C         142.8147  142.8918  164.4860 C.ar    1  UNL1        0.1333
     10 C         141.7421  143.9348  164.3794 C.ar    1  UNL1        0.0345
     11 C         141.3365  144.4587  163.0337 C.ar    1  UNL1        0.0051
     12 C         140.2638  145.5018  162.9270 C.ar    1  UNL1        0.0002
     13 C         139.8582  146.0257  161.5813 C.ar    1  UNL1        0.0009
     14 C         140.5252  145.5064  160.3422 C.ar    1  UNL1        0.0114
     15 C         141.5979  144.4634  160.4487 C.ar    1  UNL1        0.0591
     16 CL        142.2649  143.9442  159.2096 Cl      1  UNL1       -0.0822
     17 C         142.0035  143.9395  161.7945 C.ar    1  UNL1        0.0298
     18 C         143.0762  142.8964  161.9011 C.ar    1  UNL1        0.1011
     19 N         143.4818  142.3726  163.2468 N.ar    1  UNL1       -0.2290
     20 C         139.0562  140.3109  169.6301 C.1     1  UNL1        0.1246
     21 N         138.0151  139.7966  170.5798 N.1     1  UNL1       -0.1891
     22 O         138.9116  139.6023  166.7187 O.3     1  UNL1       -0.4610
     23 C         139.6836  137.8777  164.9354 C.3     1  UNL1        0.0488
     24 C         138.9238  139.1190  165.2986 C.3     1  UNL1        0.1836
     25 C         138.1761  139.8769  164.2420 C.3     1  UNL1        0.1163
     26 N         138.7256  141.1696  163.7158 N.3     1  UNL1       -0.2673
     27 C         138.2335  142.4742  164.2689 C.3     1  UNL1        0.0898
     28 C         139.7671  141.1578  162.6364 C.3     1  UNL1        0.0898
@<TRIPOS>BOND
     1    24    23    1
     2    24    25    1
     3    25    26    1
     4    26    27    1
     5    26    28    1
     6    24    22    1
     7    22     1    1
     8     1     2   ar
     9     2     3   ar
    10     3     7    1
    11     7     9    1
    12     9    10   ar
    13    10    11   ar
    14    11    12   ar
    15    12    13   ar
    16    13    14   ar
    17    14    15   ar
    18    15    16    1
    19    15    17   ar
    20    17    18   ar
    21    18    19   ar
    22     3     4   ar
    23     4     5   ar
    24     5     6   ar
    25     6    20    1
    26    20    21    3
    27     6     1   ar
    28    19     9   ar
    29    17    11   ar
    30     7     8    1
@<TRIPOS>MOLECULE
*****
 28 30 0 0 0
SMALL
GASTEIGER

@<TRIPOS>ATOM
      1 C         141.0496  141.7497  168.2145 C.ar    1  UNL1        0.2543
      2 N         141.8867  140.7942  167.4167 N.ar    1  UNL1       -0.1931
      3 C         142.5094  139.6044  168.0849 C.ar    1  UNL1        0.1558
      4 C         142.2951  139.3700  169.5509 C.ar    1  UNL1        0.1342
      5 N         141.4581  140.3254  170.3487 N.ar    1  UNL1       -0.2263
      6 C         140.8353  141.5153  169.6805 C.ar    1  UNL1        0.2025
      7 N         143.3465  138.6489  167.2871 N.pl3   1  UNL1       -0.2820
      8 H         143.9502  138.0215  167.7465 H       1  UNL1        0.1551
      9 C         143.2636  138.6494  165.7893 C.ar    1  UNL1        0.1333
     10 C         141.9977  138.2215  165.1081 C.ar    1  UNL1        0.0345
     11 C         141.9149  138.2220  163.6104 C.ar    1  UNL1        0.0051
     12 C         140.6489  137.7941  162.9290 C.ar    1  UNL1        0.0002
     13 C         140.5661  137.7946  161.4313 C.ar    1  UNL1        0.0009
     14 C         141.7493  138.2231  160.6149 C.ar    1  UNL1        0.0114
     15 C         143.0153  138.6510  161.2962 C.ar    1  UNL1        0.0591
     16 CL        144.1984  139.0795  160.4798 Cl      1  UNL1       -0.0822
     17 C         143.0981  138.6505  162.7940 C.ar    1  UNL1        0.0298
     18 C         144.3640  139.0784  163.4753 C.ar    1  UNL1        0.1011
     19 N         144.4468  139.0779  164.9729 N.ar    1  UNL1       -0.2290
     20 C         139.9983  142.4707  170.4782 C.1     1  UNL1        0.1246
     21 N         139.1613  143.4263  171.2760 N.1     1  UNL1       -0.1891
     22 O         140.4269  142.9395  167.5463 O.3     1  UNL1       -0.4610
     23 C         141.3823  143.4815  165.1918 C.3     1  UNL1        0.0488
     24 C         140.2694  142.9649  166.0548 C.3     1  UNL1        0.1836
     25 C         138.9991  142.4738  165.4263 C.3     1  UNL1        0.1163
     26 N         138.9724  141.1472  164.7267 N.3     1  UNL1       -0.2673
     27 C         139.2659  141.0678  163.2579 C.3     1  UNL1        0.0898
     28 C         138.6523  139.8999  165.4960 C.3     1  UNL1        0.0898
@<TRIPOS>BOND
     1    24    23    1
     2    24    25    1
     3    25    26    1
     4    26    27    1
     5    26    28    1
     6    24    22    1
     7    22     1    1
     8     1     2   ar
     9     2     3   ar
    10     3     7    1
    11     7     9    1
    12     9    10   ar
    13    10    11   ar
    14    11    12   ar
    15    12    13   ar
    16    13    14   ar
    17    14    15   ar
    18    15    16    1
    19    15    17   ar
    20    17    18   ar
    21    18    19   ar
    22     3     4   ar
    23     4     5   ar
    24     5     6   ar
    25     6    20    1
    26    20    21    3
    27     6     1   ar
    28    19     9   ar
    29    17    11   ar
    30     7     8    1
@<TRIPOS>MOLECULE
*****
 28 30 0 0 0
SMALL
GASTEIGER

@<TRIPOS>ATOM
      1 C         141.5825  138.0709  162.3340 C.ar    1  UNL1        0.2543
      2 N         142.1261  138.2659  163.7184 N.ar    1  UNL1       -0.1931
      3 C         143.4022  139.0273  163.9227 C.ar    1  UNL1        0.1558
      4 C         144.1347  139.5938  162.7425 C.ar    1  UNL1        0.1342
      5 N         143.5911  139.3988  161.3582 N.ar    1  UNL1       -0.2263
      6 C         142.3150  138.6373  161.1539 C.ar    1  UNL1        0.2025
      7 N         143.9458  139.2223  165.3070 N.pl3   1  UNL1       -0.2820
      8 H         144.8251  138.8504  165.5475 H       1  UNL1        0.1551
      9 C         143.1497  139.9839  166.3250 C.ar    1  UNL1        0.1333
     10 C         142.7476  139.3231  167.6101 C.ar    1  UNL1        0.0345
     11 C         141.9516  140.0847  168.6281 C.ar    1  UNL1        0.0051
     12 C         141.5495  139.4239  169.9133 C.ar    1  UNL1        0.0002
     13 C         140.7534  140.1855  170.9312 C.ar    1  UNL1        0.0009
     14 C         140.3595  141.6080  170.6640 C.ar    1  UNL1        0.0114
     15 C         140.7616  142.2688  169.3789 C.ar    1  UNL1        0.0591
     16 CL        140.3676  143.6913  169.1117 Cl      1  UNL1       -0.0822
     17 C         141.5576  141.5072  168.3609 C.ar    1  UNL1        0.0298
     18 C         141.9597  142.1680  167.0757 C.ar    1  UNL1        0.1011
     19 N         142.7558  141.4064  166.0578 N.ar    1  UNL1       -0.2290
     20 C         141.7714  138.4423  159.7696 C.1     1  UNL1        0.1246
     21 N         141.2277  138.2473  158.3852 N.1     1  UNL1       -0.1891
     22 O         140.3064  137.3094  162.1297 O.3     1  UNL1       -0.4610
     23 C         138.8328  137.8219  164.2072 C.3     1  UNL1        0.0488
     24 C         139.0254  137.8205  162.7196 C.3     1  UNL1        0.1836
     25 C         137.9370  138.3300  161.8220 C.3     1  UNL1        0.1163
     26 N         137.9060  139.7770  161.4277 N.3     1  UNL1       -0.2673
     27 C         138.2025  140.1751  160.0122 C.3     1  UNL1        0.0898
     28 C         137.5786  140.8258  162.4489 C.3     1  UNL1        0.0898
@<TRIPOS>BOND
     1    24    23    1
     2    24    25    1
     3    25    26    1
     4    26    27    1
     5    26    28    1
     6    24    22    1
     7    22     1    1
     8     1     2   ar
     9     2     3   ar
    10     3     7    1
    11     7     9    1
    12     9    10   ar
    13    10    11   ar
    14    11    12   ar
    15    12    13   ar
    16    13    14   ar
    17    14    15   ar
    18    15    16    1
    19    15    17   ar
    20    17    18   ar
    21    18    19   ar
    22     3     4   ar
    23     4     5   ar
    24     5     6   ar
    25     6    20    1
    26    20    21    3
    27     6     1   ar
    28    19     9   ar
    29    17    11   ar
    30     7     8    1
@<TRIPOS>MOLECULE
*****
 28 30 0 0 0
SMALL
GASTEIGER

@<TRIPOS>ATOM
      1 C         140.3041  141.1041  167.2143 C.ar    1  UNL1        0.2543
      2 N         141.4023  141.6472  166.3487 N.ar    1  UNL1       -0.1931
      3 C         142.6836  142.1183  166.9702 C.ar    1  UNL1        0.1558
      4 C         142.8667  142.0464  168.4573 C.ar    1  UNL1        0.1342
      5 N         141.7685  141.5034  169.3228 N.ar    1  UNL1       -0.2263
      6 C         140.4872  141.0322  168.7013 C.ar    1  UNL1        0.2025
      7 N         143.7817  142.6614  166.1047 N.pl3   1  UNL1       -0.2820
      8 H         144.4831  143.2294  166.4980 H       1  UNL1        0.1551
      9 C         143.8113  142.3389  164.6401 C.ar    1  UNL1        0.1333
     10 C         143.8872  140.9107  164.1879 C.ar    1  UNL1        0.0345
     11 C         143.9168  140.5883  162.7233 C.ar    1  UNL1        0.0051
     12 C         143.9927  139.1601  162.2711 C.ar    1  UNL1        0.0002
     13 C         144.0223  138.8377  160.8065 C.ar    1  UNL1        0.0009
     14 C         143.9759  139.9435  159.7940 C.ar    1  UNL1        0.0114
     15 C         143.9000  141.3716  160.2462 C.ar    1  UNL1        0.0591
     16 CL        143.8536  142.4774  159.2337 Cl      1  UNL1       -0.0822
     17 C         143.8704  141.6941  161.7108 C.ar    1  UNL1        0.0298
     18 C         143.7945  143.1223  162.1630 C.ar    1  UNL1        0.1011
     19 N         143.7649  143.4447  163.6276 N.ar    1  UNL1       -0.2290
     20 C         139.3891  140.4892  169.5668 C.1     1  UNL1        0.1246
     21 N         138.2909  139.9462  170.4324 N.1     1  UNL1       -0.1891
     22 O         139.0228  140.6329  166.5928 O.3     1  UNL1       -0.4610
     23 C         137.7215  138.4011  166.8679 C.3     1  UNL1        0.0488
     24 C         138.8433  139.1833  166.2517 C.3     1  UNL1        0.1836
     25 C         139.7856  138.5158  165.2944 C.3     1  UNL1        0.1163
     26 N         139.6391  138.7401  163.8185 N.3     1  UNL1       -0.2673
     27 C         138.8713  137.7589  162.9833 C.3     1  UNL1        0.0898
     28 C         140.2605  139.9457  163.1779 C.3     1  UNL1        0.0898
@<TRIPOS>BOND
     1    24    23    1
     2    24    25    1
     3    25    26    1
     4    26    27    1
     5    26    28    1
     6    24    22    1
     7    22     1    1
     8     1     2   ar
     9     2     3   ar
    10     3     7    1
    11     7     9    1
    12     9    10   ar
    13    10    11   ar
    14    11    12   ar
    15    12    13   ar
    16    13    14   ar
    17    14    15   ar
    18    15    16    1
    19    15    17   ar
    20    17    18   ar
    21    18    19   ar
    22     3     4   ar
    23     4     5   ar
    24     5     6   ar
    25     6    20    1
    26    20    21    3
    27     6     1   ar
    28    19     9   ar
    29    17    11   ar
    30     7     8    1
@<TRIPOS>MOLECULE
*****
 28 30 0 0 0
SMALL
GASTEIGER

@<TRIPOS>ATOM
      1 C         140.6884  143.0450  161.9028 C.ar    1  UNL1        0.2543
      2 N         141.2995  142.2676  163.0308 N.ar    1  UNL1       -0.1931
      3 C         142.7055  142.5570  163.4660 C.ar    1  UNL1        0.1558
      4 C         143.5004  143.6238  162.7732 C.ar    1  UNL1        0.1342
      5 N         142.8894  144.4012  161.6452 N.ar    1  UNL1       -0.2263
      6 C         141.4834  144.1118  161.2100 C.ar    1  UNL1        0.2025
      7 N         143.3165  141.7796  164.5939 N.pl3   1  UNL1       -0.2820
      8 H         144.2096  141.3789  164.4885 H       1  UNL1        0.1551
      9 C         142.5668  141.6128  165.8824 C.ar    1  UNL1        0.1333
     10 C         143.0972  142.2274  167.1437 C.ar    1  UNL1        0.0345
     11 C         142.3476  142.0605  168.4322 C.ar    1  UNL1        0.0051
     12 C         142.8780  142.6751  169.6935 C.ar    1  UNL1        0.0002
     13 C         142.1284  142.5083  170.9820 C.ar    1  UNL1        0.0009
     14 C         140.8483  141.7268  171.0091 C.ar    1  UNL1        0.0114
     15 C         140.3179  141.1122  169.7479 C.ar    1  UNL1        0.0591
     16 CL        139.0378  140.3307  169.7750 Cl      1  UNL1       -0.0822
     17 C         141.0676  141.2790  168.4593 C.ar    1  UNL1        0.0298
     18 C         140.5371  140.6644  167.1980 C.ar    1  UNL1        0.1011
     19 N         141.2868  140.8313  165.9096 N.ar    1  UNL1       -0.2290
     20 C         140.8724  144.8892  160.0821 C.1     1  UNL1        0.1246
     21 N         140.2613  145.6666  158.9541 N.1     1  UNL1       -0.1891
     22 O         139.2824  142.7556  161.4676 O.3     1  UNL1       -0.4610
     23 C         137.9078  144.1916  163.1405 C.3     1  UNL1        0.0488
     24 C         138.1528  142.8847  162.4461 C.3     1  UNL1        0.1836
     25 C         137.2683  141.7071  162.7301 C.3     1  UNL1        0.1163
     26 N         137.8741  140.3609  162.9961 N.3     1  UNL1       -0.2673
     27 C         138.1222  139.4125  161.8607 C.3     1  UNL1        0.0898
     28 C         138.2319  139.9630  164.3974 C.3     1  UNL1        0.0898
@<TRIPOS>BOND
     1    24    23    1
     2    24    25    1
     3    25    26    1
     4    26    27    1
     5    26    28    1
     6    24    22    1
     7    22     1    1
     8     1     2   ar
     9     2     3   ar
    10     3     7    1
    11     7     9    1
    12     9    10   ar
    13    10    11   ar
    14    11    12   ar
    15    12    13   ar
    16    13    14   ar
    17    14    15   ar
    18    15    16    1
    19    15    17   ar
    20    17    18   ar
    21    18    19   ar
    22     3     4   ar
    23     4     5   ar
    24     5     6   ar
    25     6    20    1
    26    20    21    3
    27     6     1   ar
    28    19     9   ar
    29    17    11   ar
    30     7     8    1
