@<TRIPOS>MOLECULE
*****
 38 41 0 0 0
SMALL
GASTEIGER

@<TRIPOS>ATOM
      1 C         138.7025  141.8282  157.0083 C.ar    1  UNL1        0.1331
      2 C         140.0917  141.8671  156.4440 C.ar    1  UNL1        0.0346
      3 C         141.1735  142.6150  157.1652 C.ar    1  UNL1        0.0102
      4 C         140.8662  143.3240  158.4509 C.ar    1  UNL1        0.0849
      5 C         139.4770  143.2851  159.0152 C.ar    1  UNL1        0.1379
      6 N         138.3951  142.5372  158.2940 N.ar    1  UNL1       -0.2158
      7 C         135.4363  140.3169  155.5546 C.3     1  UNL1        0.0933
      8 C         136.4753  139.5419  154.7996 C.3     1  UNL1        0.0428
      9 C         137.8253  140.0138  155.2523 C.3     1  UNL1        0.0940
     10 N         137.6206  141.0803  156.2870 N.pl3   1  UNL1       -0.2915
     11 C         136.1441  141.2676  156.4739 C.3     1  UNL1        0.1117
     12 C         133.1450  139.5929  156.5425 C.2     1  UNL1        0.2460
     13 O         133.8257  139.1681  157.8098 O.2     1  UNL1       -0.2701
     14 N         133.9503  140.1673  155.4148 N.am    1  UNL1       -0.3007
     15 H         133.5036  140.4461  154.5830 H       1  UNL1        0.1497
     16 C         131.0016  138.1381  156.7404 C.2     1  UNL1        0.0048
     17 C         131.6590  139.4433  156.4027 C.2     1  UNL1        0.0577
     18 C         141.9481  144.0719  159.1721 C.2     1  UNL1        0.2455
     19 N         143.2240  143.3748  159.5409 N.am    1  UNL1       -0.3252
     20 O         141.7540  145.5170  159.5246 O.2     1  UNL1       -0.2703
     21 H         143.3514  142.4264  159.3096 H       1  UNL1        0.1453
     22 H         143.9341  143.8657  160.0143 H       1  UNL1        0.1453
     23 N         139.1696  143.9941  160.3009 N.pl3   1  UNL1       -0.2966
     24 H         138.9858  144.9613  160.2979 H       1  UNL1        0.1537
     25 C         139.1422  143.2295  161.5910 C.ar    1  UNL1        0.0689
     26 C         137.9608  143.3473  162.5078 C.ar    1  UNL1        0.0191
     27 C         137.9334  142.5827  163.7980 C.ar    1  UNL1        0.0356
     28 C         139.0874  141.7002  164.1714 C.ar    1  UNL1        0.1319
     29 N         140.2688  141.5823  163.2547 N.ar    1  UNL1       -0.2279
     30 C         140.2962  142.3470  161.9645 C.ar    1  UNL1        0.1149
     31 N         139.0601  140.9355  165.4616 N.pl3   1  UNL1       -0.2883
     32 C         138.2143  139.7029  165.5851 C.3     1  UNL1        0.1216
     33 C         138.1869  138.9382  166.8752 C.3     1  UNL1        0.1350
     34 C         137.3411  137.7056  166.9987 C.3     1  UNL1        0.0339
     35 O         139.0053  139.4062  168.0419 O.3     1  UNL1       -0.3552
     36 C         139.8511  140.6388  167.9184 C.3     1  UNL1        0.1350
     37 C         140.6695  141.1068  169.0852 C.3     1  UNL1        0.0339
     38 C         139.8785  141.4035  166.6283 C.3     1  UNL1        0.1216
@<TRIPOS>BOND
     1    16    17    2
     2    17    12    1
     3    12    13    2
     4    12    14   am
     5     7    14    1
     6     7     8    1
     7     8     9    1
     8     9    10    1
     9    10     1    1
    10     1     2   ar
    11     2     3   ar
    12     3     4   ar
    13     4    18    1
    14    18    19   am
    15    18    20    2
    16     4     5   ar
    17     5    23    1
    18    23    25    1
    19    25    26   ar
    20    26    27   ar
    21    27    28   ar
    22    28    31    1
    23    31    32    1
    24    32    33    1
    25    33    34    1
    26    33    35    1
    27    35    36    1
    28    36    37    1
    29    36    38    1
    30    28    29   ar
    31    29    30   ar
    32     5     6   ar
    33    10    11    1
    34    11     7    1
    35     6     1   ar
    36    30    25   ar
    37    38    31    1
    38    14    15    1
    39    19    21    1
    40    19    22    1
    41    23    24    1
@<TRIPOS>MOLECULE
*****
 38 41 0 0 0
SMALL
GASTEIGER

@<TRIPOS>ATOM
      1 C         141.9627  142.3700  164.6738 C.ar    1  UNL1        0.1331
      2 C         142.1993  142.6175  166.1341 C.ar    1  UNL1        0.0346
      3 C         142.6103  141.4864  167.0295 C.ar    1  UNL1        0.0102
      4 C         142.7848  140.1079  166.4644 C.ar    1  UNL1        0.0849
      5 C         142.5481  139.8604  165.0040 C.ar    1  UNL1        0.1379
      6 N         142.1371  140.9915  164.1087 N.ar    1  UNL1       -0.2158
      7 C         141.3314  144.9518  161.8451 C.3     1  UNL1        0.0933
      8 C         140.5067  145.5315  162.9559 C.3     1  UNL1        0.0428
      9 C         140.6428  144.6349  164.1507 C.3     1  UNL1        0.0940
     10 N         141.5516  143.5011  163.7783 N.pl3   1  UNL1       -0.2915
     11 C         141.9772  143.6970  162.3534 C.3     1  UNL1        0.1117
     12 C         140.5350  145.1230  159.3780 C.2     1  UNL1        0.2460
     13 O         139.4343  144.1453  159.6655 O.2     1  UNL1       -0.2701
     14 N         141.4836  145.5262  160.4678 N.am    1  UNL1       -0.3007
     15 H         142.2060  146.1679  160.2791 H       1  UNL1        0.1497
     16 C         142.0556  145.9382  157.4355 C.2     1  UNL1        0.0048
     17 C         140.6872  145.6973  158.0007 C.2     1  UNL1        0.0577
     18 C         143.1958  138.9768  167.3598 C.2     1  UNL1        0.2455
     19 N         142.7446  138.9504  168.7901 N.am    1  UNL1       -0.3252
     20 O         144.0581  137.8721  166.8249 O.2     1  UNL1       -0.2703
     21 H         142.1787  139.6755  169.1412 H       1  UNL1        0.1453
     22 H         143.0144  138.2081  169.3778 H       1  UNL1        0.1453
     23 N         142.7226  138.4819  164.4390 N.pl3   1  UNL1       -0.2966
     24 H         142.8662  137.7172  165.0422 H       1  UNL1        0.1537
     25 C         142.6782  138.2685  162.9550 C.ar    1  UNL1        0.0689
     26 C         143.9138  138.4759  162.1302 C.ar    1  UNL1        0.0191
     27 C         143.8694  138.2624  160.6460 C.ar    1  UNL1        0.0356
     28 C         142.5895  137.8417  159.9868 C.ar    1  UNL1        0.1319
     29 N         141.3539  137.6343  160.8116 N.ar    1  UNL1       -0.2279
     30 C         141.3982  137.8477  162.2956 C.ar    1  UNL1        0.1149
     31 N         142.5451  137.6282  158.5027 N.pl3   1  UNL1       -0.2883
     32 C         142.0440  138.7187  157.6028 C.3     1  UNL1        0.1216
     33 C         141.9996  138.5053  156.1188 C.3     1  UNL1        0.1350
     34 C         141.4985  139.5958  155.2189 C.3     1  UNL1        0.0339
     35 O         142.4562  137.2015  155.5346 O.3     1  UNL1       -0.3552
     36 C         142.9573  136.1110  156.4344 C.3     1  UNL1        0.1350
     37 C         143.4140  134.8070  155.8502 C.3     1  UNL1        0.0339
     38 C         143.0017  136.3243  157.9185 C.3     1  UNL1        0.1216
@<TRIPOS>BOND
     1    16    17    2
     2    17    12    1
     3    12    13    2
     4    12    14   am
     5     7    14    1
     6     7     8    1
     7     8     9    1
     8     9    10    1
     9    10     1    1
    10     1     2   ar
    11     2     3   ar
    12     3     4   ar
    13     4    18    1
    14    18    19   am
    15    18    20    2
    16     4     5   ar
    17     5    23    1
    18    23    25    1
    19    25    26   ar
    20    26    27   ar
    21    27    28   ar
    22    28    31    1
    23    31    32    1
    24    32    33    1
    25    33    34    1
    26    33    35    1
    27    35    36    1
    28    36    37    1
    29    36    38    1
    30    28    29   ar
    31    29    30   ar
    32     5     6   ar
    33    10    11    1
    34    11     7    1
    35     6     1   ar
    36    30    25   ar
    37    38    31    1
    38    14    15    1
    39    19    21    1
    40    19    22    1
    41    23    24    1
@<TRIPOS>MOLECULE
*****
 38 41 0 0 0
SMALL
GASTEIGER

@<TRIPOS>ATOM
      1 C         138.7247  142.0138  156.7904 C.ar    1  UNL1        0.1331
      2 C         140.0487  142.0694  156.0877 C.ar    1  UNL1        0.0346
      3 C         141.1748  142.8698  156.6719 C.ar    1  UNL1        0.0102
      4 C         140.9768  143.6147  157.9587 C.ar    1  UNL1        0.0849
      5 C         139.6528  143.5591  158.6614 C.ar    1  UNL1        0.1379
      6 N         138.5267  142.7587  158.0773 N.ar    1  UNL1       -0.2158
      7 C         135.3729  140.3889  155.6993 C.3     1  UNL1        0.0933
      8 C         136.3587  139.5741  154.9154 C.3     1  UNL1        0.0428
      9 C         137.7342  140.0837  155.2288 C.3     1  UNL1        0.0940
     10 N         137.5986  141.2133  156.2063 N.pl3   1  UNL1       -0.2915
     11 C         136.1392  141.4020  156.4971 C.3     1  UNL1        0.1117
     12 C         133.1794  139.6777  156.8964 C.2     1  UNL1        0.2460
     13 O         133.9669  139.3039  158.1171 O.2     1  UNL1       -0.2701
     14 N         133.8824  140.2202  155.6875 N.am    1  UNL1       -0.3007
     15 H         133.3656  140.4656  154.8863 H       1  UNL1        0.1497
     16 C         131.0885  138.1658  156.5926 C.2     1  UNL1        0.0048
     17 C         131.6890  139.5090  156.8846 C.2     1  UNL1        0.0577
     18 C         142.1029  144.4152  158.5429 C.2     1  UNL1        0.2455
     19 N         142.6573  145.5890  157.7915 N.am    1  UNL1       -0.3252
     20 O         142.6746  144.0417  159.8784 O.2     1  UNL1       -0.2703
     21 H         142.2821  145.8341  156.9149 H       1  UNL1        0.1453
     22 H         143.3964  146.1144  158.1749 H       1  UNL1        0.1453
     23 N         139.4548  144.3040  159.9483 N.pl3   1  UNL1       -0.2966
     24 H         139.3440  145.2822  159.9388 H       1  UNL1        0.1537
     25 C         139.4257  143.5585  161.2495 C.ar    1  UNL1        0.0689
     26 C         138.9249  144.2356  162.4908 C.ar    1  UNL1        0.0191
     27 C         138.8958  143.4900  163.7921 C.ar    1  UNL1        0.0356
     28 C         139.3675  142.0674  163.8521 C.ar    1  UNL1        0.1319
     29 N         139.8682  141.3903  162.6109 N.ar    1  UNL1       -0.2279
     30 C         139.8974  142.1358  161.3096 C.ar    1  UNL1        0.1149
     31 N         139.3384  141.3218  165.1535 N.pl3   1  UNL1       -0.2883
     32 C         140.1048  141.8421  166.3332 C.3     1  UNL1        0.1216
     33 C         140.0758  141.0966  167.6345 C.3     1  UNL1        0.1350
     34 C         140.8422  141.6169  168.8142 C.3     1  UNL1        0.0339
     35 O         139.2802  139.8308  167.7560 O.3     1  UNL1       -0.3552
     36 C         138.5138  139.3105  166.5762 C.3     1  UNL1        0.1350
     37 C         137.7182  138.0446  166.6978 C.3     1  UNL1        0.0339
     38 C         138.5428  140.0560  165.2750 C.3     1  UNL1        0.1216
@<TRIPOS>BOND
     1    16    17    2
     2    17    12    1
     3    12    13    2
     4    12    14   am
     5     7    14    1
     6     7     8    1
     7     8     9    1
     8     9    10    1
     9    10     1    1
    10     1     2   ar
    11     2     3   ar
    12     3     4   ar
    13     4    18    1
    14    18    19   am
    15    18    20    2
    16     4     5   ar
    17     5    23    1
    18    23    25    1
    19    25    26   ar
    20    26    27   ar
    21    27    28   ar
    22    28    31    1
    23    31    32    1
    24    32    33    1
    25    33    34    1
    26    33    35    1
    27    35    36    1
    28    36    37    1
    29    36    38    1
    30    28    29   ar
    31    29    30   ar
    32     5     6   ar
    33    10    11    1
    34    11     7    1
    35     6     1   ar
    36    30    25   ar
    37    38    31    1
    38    14    15    1
    39    19    21    1
    40    19    22    1
    41    23    24    1
@<TRIPOS>MOLECULE
*****
 38 41 0 0 0
SMALL
GASTEIGER

@<TRIPOS>ATOM
      1 C         142.7932  138.7872  157.5825 C.ar    1  UNL1        0.1331
      2 C         142.5244  140.1501  157.0168 C.ar    1  UNL1        0.0346
      3 C         142.8869  141.3740  157.8046 C.ar    1  UNL1        0.0102
      4 C         143.5182  141.2349  159.1582 C.ar    1  UNL1        0.0849
      5 C         143.7869  139.8720  159.7240 C.ar    1  UNL1        0.1379
      6 N         143.4244  138.6481  158.9361 N.ar    1  UNL1       -0.2158
      7 C         142.5773  135.4306  155.6456 C.3     1  UNL1        0.0933
      8 C         141.1682  135.9292  155.5192 C.3     1  UNL1        0.0428
      9 C         141.0776  137.2473  156.2295 C.3     1  UNL1        0.0940
     10 N         142.4306  137.5633  156.7947 N.pl3   1  UNL1       -0.2915
     11 C         143.3575  136.4404  156.4338 C.3     1  UNL1        0.1117
     12 C         143.1777  132.9204  155.9429 C.2     1  UNL1        0.2460
     13 O         142.7083  132.9767  157.3664 O.2     1  UNL1       -0.2701
     14 N         143.1122  134.1473  155.0824 N.am    1  UNL1       -0.3007
     15 H         143.4203  134.1103  154.1481 H       1  UNL1        0.1497
     16 C         144.9541  131.0245  155.9572 C.2     1  UNL1        0.0048
     17 C         143.7127  131.6371  155.3797 C.2     1  UNL1        0.0577
     18 C         143.8807  142.4589  159.9460 C.2     1  UNL1        0.2455
     19 N         142.9719  143.6522  159.9383 N.am    1  UNL1       -0.3252
     20 O         145.1520  142.4894  160.7416 O.2     1  UNL1       -0.2703
     21 H         142.1375  143.6321  159.4162 H       1  UNL1        0.1453
     22 H         143.2099  144.4555  160.4554 H       1  UNL1        0.1453
     23 N         144.4182  139.7329  161.0775 N.pl3   1  UNL1       -0.2966
     24 H         145.3952  139.6429  161.1581 H       1  UNL1        0.1537
     25 C         143.5608  139.7308  162.3083 C.ar    1  UNL1        0.0689
     26 C         144.1834  139.9428  163.6564 C.ar    1  UNL1        0.0191
     27 C         143.3259  139.9407  164.8872 C.ar    1  UNL1        0.0356
     28 C         141.8459  139.7268  164.7699 C.ar    1  UNL1        0.1319
     29 N         141.2233  139.5148  163.4218 N.ar    1  UNL1       -0.2279
     30 C         142.0807  139.5169  162.1910 C.ar    1  UNL1        0.1149
     31 N         140.9885  139.7247  166.0007 N.pl3   1  UNL1       -0.2883
     32 C         141.4882  140.3607  167.2639 C.3     1  UNL1        0.1216
     33 C         140.6308  140.3587  168.4947 C.3     1  UNL1        0.1350
     34 C         141.1305  140.9947  169.7579 C.3     1  UNL1        0.0339
     35 O         139.2737  139.7207  168.4622 O.3     1  UNL1       -0.3552
     36 C         138.7740  139.0846  167.1990 C.3     1  UNL1        0.1350
     37 C         137.4168  138.4465  167.1666 C.3     1  UNL1        0.0339
     38 C         139.6314  139.0867  165.9682 C.3     1  UNL1        0.1216
@<TRIPOS>BOND
     1    16    17    2
     2    17    12    1
     3    12    13    2
     4    12    14   am
     5     7    14    1
     6     7     8    1
     7     8     9    1
     8     9    10    1
     9    10     1    1
    10     1     2   ar
    11     2     3   ar
    12     3     4   ar
    13     4    18    1
    14    18    19   am
    15    18    20    2
    16     4     5   ar
    17     5    23    1
    18    23    25    1
    19    25    26   ar
    20    26    27   ar
    21    27    28   ar
    22    28    31    1
    23    31    32    1
    24    32    33    1
    25    33    34    1
    26    33    35    1
    27    35    36    1
    28    36    37    1
    29    36    38    1
    30    28    29   ar
    31    29    30   ar
    32     5     6   ar
    33    10    11    1
    34    11     7    1
    35     6     1   ar
    36    30    25   ar
    37    38    31    1
    38    14    15    1
    39    19    21    1
    40    19    22    1
    41    23    24    1
@<TRIPOS>MOLECULE
*****
 38 41 0 0 0
SMALL
GASTEIGER

@<TRIPOS>ATOM
      1 C         139.3638  137.7285  154.8898 C.ar    1  UNL1        0.1331
      2 C         138.0963  137.2613  154.2377 C.ar    1  UNL1        0.0346
      3 C         136.8892  138.1515  154.2211 C.ar    1  UNL1        0.0102
      4 C         136.9494  139.5089  154.8567 C.ar    1  UNL1        0.0849
      5 C         138.2169  139.9761  155.5088 C.ar    1  UNL1        0.1379
      6 N         139.4240  139.0859  155.5253 N.ar    1  UNL1       -0.2158
      7 C         142.5267  135.6149  155.6608 C.3     1  UNL1        0.0933
      8 C         142.3307  135.3221  154.2027 C.3     1  UNL1        0.0428
      9 C         141.1221  136.0782  153.7365 C.3     1  UNL1        0.0940
     10 N         140.5710  136.8383  154.9063 N.pl3   1  UNL1       -0.2915
     11 C         141.4391  136.5520  156.0956 C.3     1  UNL1        0.1117
     12 C         143.5168  133.6719  157.0730 C.2     1  UNL1        0.2460
     13 O         142.3232  132.8249  156.7443 O.2     1  UNL1       -0.2701
     14 N         143.6185  135.0669  156.5312 N.am    1  UNL1       -0.3007
     15 H         144.4018  135.6228  156.7469 H       1  UNL1        0.1497
     16 C         145.2301  131.7972  157.6211 C.2     1  UNL1        0.0048
     17 C         144.6086  133.1238  157.9434 C.2     1  UNL1        0.0577
     18 C         135.7422  140.3990  154.8401 C.2     1  UNL1        0.2455
     19 N         135.0470  140.6960  153.5445 N.am    1  UNL1       -0.3252
     20 O         135.2302  140.9923  156.1191 O.2     1  UNL1       -0.2703
     21 H         135.3831  140.3066  152.7051 H       1  UNL1        0.1453
     22 H         134.2547  141.2802  153.5337 H       1  UNL1        0.1453
     23 N         138.2772  141.3334  156.1443 N.pl3   1  UNL1       -0.2966
     24 H         138.3057  142.1401  155.5806 H       1  UNL1        0.1537
     25 C         138.2940  141.4618  157.6387 C.ar    1  UNL1        0.0689
     26 C         138.1124  140.2459  158.4980 C.ar    1  UNL1        0.0191
     27 C         138.1292  140.3743  159.9924 C.ar    1  UNL1        0.0356
     28 C         138.3278  141.7186  160.6275 C.ar    1  UNL1        0.1319
     29 N         138.5095  142.9346  159.7681 N.ar    1  UNL1       -0.2279
     30 C         138.4926  142.8062  158.2738 C.ar    1  UNL1        0.1149
     31 N         138.3447  141.8471  162.1219 N.pl3   1  UNL1       -0.2883
     32 C         138.4417  143.2025  162.7571 C.3     1  UNL1        0.1216
     33 C         138.4586  143.3309  164.2515 C.3     1  UNL1        0.1350
     34 C         138.5556  144.6863  164.8867 C.3     1  UNL1        0.0339
     35 O         138.3784  142.1040  165.1106 O.3     1  UNL1       -0.3552
     36 C         138.2814  140.7486  164.4754 C.3     1  UNL1        0.1350
     37 C         138.2012  139.5216  165.3347 C.3     1  UNL1        0.0339
     38 C         138.2645  140.6201  162.9811 C.3     1  UNL1        0.1216
@<TRIPOS>BOND
     1    16    17    2
     2    17    12    1
     3    12    13    2
     4    12    14   am
     5     7    14    1
     6     7     8    1
     7     8     9    1
     8     9    10    1
     9    10     1    1
    10     1     2   ar
    11     2     3   ar
    12     3     4   ar
    13     4    18    1
    14    18    19   am
    15    18    20    2
    16     4     5   ar
    17     5    23    1
    18    23    25    1
    19    25    26   ar
    20    26    27   ar
    21    27    28   ar
    22    28    31    1
    23    31    32    1
    24    32    33    1
    25    33    34    1
    26    33    35    1
    27    35    36    1
    28    36    37    1
    29    36    38    1
    30    28    29   ar
    31    29    30   ar
    32     5     6   ar
    33    10    11    1
    34    11     7    1
    35     6     1   ar
    36    30    25   ar
    37    38    31    1
    38    14    15    1
    39    19    21    1
    40    19    22    1
    41    23    24    1
@<TRIPOS>MOLECULE
*****
 38 41 0 0 0
SMALL
GASTEIGER

@<TRIPOS>ATOM
      1 C         142.2679  138.4820  160.3390 C.ar    1  UNL1        0.1331
      2 C         140.8169  138.7917  160.1184 C.ar    1  UNL1        0.0346
      3 C         140.1886  138.5287  158.7820 C.ar    1  UNL1        0.0102
      4 C         141.0113  137.9560  157.6662 C.ar    1  UNL1        0.0849
      5 C         142.4623  137.6462  157.8867 C.ar    1  UNL1        0.1379
      6 N         143.0906  137.9093  159.2231 N.ar    1  UNL1       -0.2158
      7 C         143.3372  138.7293  164.0620 C.3     1  UNL1        0.0933
      8 C         144.3893  139.5703  163.4018 C.3     1  UNL1        0.0428
      9 C         144.1168  139.5800  161.9268 C.3     1  UNL1        0.0940
     10 N         142.8963  138.7450  161.6754 N.pl3   1  UNL1       -0.2915
     11 C         142.4145  138.2192  162.9950 C.3     1  UNL1        0.1117
     12 C         142.8379  139.5442  166.4779 C.2     1  UNL1        0.2460
     13 O         142.5586  140.9222  165.9553 O.2     1  UNL1       -0.2701
     14 N         143.2272  138.4477  165.5312 N.am    1  UNL1       -0.3007
     15 H         143.4105  137.5433  165.8742 H       1  UNL1        0.1497
     16 C         142.6388  140.3977  168.9237 C.2     1  UNL1        0.0048
     17 C         142.7279  139.2626  167.9472 C.2     1  UNL1        0.0577
     18 C         140.3829  137.6929  156.3297 C.2     1  UNL1        0.2455
     19 N         139.1215  136.8864  156.2397 N.am    1  UNL1       -0.3252
     20 O         141.0160  138.2365  155.0832 O.2     1  UNL1       -0.2703
     21 H         138.7059  136.5296  157.0578 H       1  UNL1        0.1453
     22 H         138.7090  136.7137  155.3626 H       1  UNL1        0.1453
     23 N         143.2849  137.0735  156.7708 N.pl3   1  UNL1       -0.2966
     24 H         143.8691  137.6605  156.2385 H       1  UNL1        0.1537
     25 C         143.2175  135.6064  156.4659 C.ar    1  UNL1        0.0689
     26 C         142.9409  135.1431  155.0663 C.ar    1  UNL1        0.0191
     27 C         142.8735  133.6759  154.7615 C.ar    1  UNL1        0.0356
     28 C         143.0827  132.6721  155.8562 C.ar    1  UNL1        0.1319
     29 N         143.3593  133.1353  157.2558 N.ar    1  UNL1       -0.2279
     30 C         143.4267  134.6025  157.5607 C.ar    1  UNL1        0.1149
     31 N         143.0153  131.2049  155.5514 N.pl3   1  UNL1       -0.2883
     32 C         141.6867  130.5458  155.3271 C.3     1  UNL1        0.1216
     33 C         141.6192  129.0786  155.0223 C.3     1  UNL1        0.1350
     34 C         140.2906  128.4195  154.7980 C.3     1  UNL1        0.0339
     35 O         142.8804  128.2706  154.9417 O.3     1  UNL1       -0.3552
     36 C         144.2090  128.9298  155.1660 C.3     1  UNL1        0.1350
     37 C         145.4702  128.1217  155.0854 C.3     1  UNL1        0.0339
     38 C         144.2765  130.3969  155.4708 C.3     1  UNL1        0.1216
@<TRIPOS>BOND
     1    16    17    2
     2    17    12    1
     3    12    13    2
     4    12    14   am
     5     7    14    1
     6     7     8    1
     7     8     9    1
     8     9    10    1
     9    10     1    1
    10     1     2   ar
    11     2     3   ar
    12     3     4   ar
    13     4    18    1
    14    18    19   am
    15    18    20    2
    16     4     5   ar
    17     5    23    1
    18    23    25    1
    19    25    26   ar
    20    26    27   ar
    21    27    28   ar
    22    28    31    1
    23    31    32    1
    24    32    33    1
    25    33    34    1
    26    33    35    1
    27    35    36    1
    28    36    37    1
    29    36    38    1
    30    28    29   ar
    31    29    30   ar
    32     5     6   ar
    33    10    11    1
    34    11     7    1
    35     6     1   ar
    36    30    25   ar
    37    38    31    1
    38    14    15    1
    39    19    21    1
    40    19    22    1
    41    23    24    1
@<TRIPOS>MOLECULE
*****
 38 41 0 0 0
SMALL
GASTEIGER

@<TRIPOS>ATOM
      1 C         134.7530  140.9021  155.7823 C.ar    1  UNL1        0.1331
      2 C         135.0983  141.6318  154.5181 C.ar    1  UNL1        0.0346
      3 C         136.5350  141.8544  154.1492 C.ar    1  UNL1        0.0102
      4 C         137.6265  141.3474  155.0445 C.ar    1  UNL1        0.0849
      5 C         137.2812  140.6177  156.3087 C.ar    1  UNL1        0.1379
      6 N         135.8445  140.3951  156.6776 N.ar    1  UNL1       -0.2158
      7 C         131.3190  139.8873  157.2801 C.3     1  UNL1        0.0933
      8 C         130.8915  140.7865  156.1581 C.3     1  UNL1        0.0428
      9 C         132.1259  141.2761  155.4605 C.3     1  UNL1        0.0940
     10 N         133.3162  140.6795  156.1513 N.pl3   1  UNL1       -0.2915
     11 C         132.8175  139.8212  157.2759 C.3     1  UNL1        0.1117
     12 C         129.6506  137.9628  157.7928 C.2     1  UNL1        0.2460
     13 O         129.8045  137.4556  156.3896 O.2     1  UNL1       -0.2701
     14 N         130.4078  139.1787  158.2380 N.am    1  UNL1       -0.3007
     15 H         130.3069  139.5116  159.1590 H       1  UNL1        0.1497
     16 C         127.3842  136.7975  158.2983 C.2     1  UNL1        0.0048
     17 C         128.7394  137.2542  158.7508 C.2     1  UNL1        0.0577
     18 C         139.0633  141.5700  154.6755 C.2     1  UNL1        0.2455
     19 N         139.7545  140.6190  153.7440 N.am    1  UNL1       -0.3252
     20 O         139.8089  142.7438  155.2380 O.2     1  UNL1       -0.2703
     21 H         139.2651  139.8486  153.3748 H       1  UNL1        0.1453
     22 H         140.6975  140.7651  153.5019 H       1  UNL1        0.1453
     23 N         138.3727  140.1107  157.2040 N.pl3   1  UNL1       -0.2966
     24 H         138.8098  139.2504  157.0087 H       1  UNL1        0.1537
     25 C         138.7983  140.9143  158.3969 C.ar    1  UNL1        0.0689
     26 C         139.6395  140.2820  159.4658 C.ar    1  UNL1        0.0191
     27 C         140.0650  141.0857  160.6588 C.ar    1  UNL1        0.0356
     28 C         139.6494  142.5216  160.7827 C.ar    1  UNL1        0.1319
     29 N         138.8082  143.1539  159.7138 N.ar    1  UNL1       -0.2279
     30 C         138.3827  142.3503  158.5209 C.ar    1  UNL1        0.1149
     31 N         140.0750  143.3253  161.9757 N.pl3   1  UNL1       -0.2883
     32 C         139.0773  143.6729  163.0405 C.3     1  UNL1        0.1216
     33 C         139.5028  144.4766  164.2334 C.3     1  UNL1        0.1350
     34 C         138.5051  144.8241  165.2982 C.3     1  UNL1        0.0339
     35 O         140.9260  144.9327  164.3614 O.3     1  UNL1       -0.3552
     36 C         141.9236  144.5851  163.2966 C.3     1  UNL1        0.1350
     37 C         143.3469  145.0413  163.4247 C.3     1  UNL1        0.0339
     38 C         141.4982  143.7815  162.1037 C.3     1  UNL1        0.1216
@<TRIPOS>BOND
     1    16    17    2
     2    17    12    1
     3    12    13    2
     4    12    14   am
     5     7    14    1
     6     7     8    1
     7     8     9    1
     8     9    10    1
     9    10     1    1
    10     1     2   ar
    11     2     3   ar
    12     3     4   ar
    13     4    18    1
    14    18    19   am
    15    18    20    2
    16     4     5   ar
    17     5    23    1
    18    23    25    1
    19    25    26   ar
    20    26    27   ar
    21    27    28   ar
    22    28    31    1
    23    31    32    1
    24    32    33    1
    25    33    34    1
    26    33    35    1
    27    35    36    1
    28    36    37    1
    29    36    38    1
    30    28    29   ar
    31    29    30   ar
    32     5     6   ar
    33    10    11    1
    34    11     7    1
    35     6     1   ar
    36    30    25   ar
    37    38    31    1
    38    14    15    1
    39    19    21    1
    40    19    22    1
    41    23    24    1
@<TRIPOS>MOLECULE
*****
 38 41 0 0 0
SMALL
GASTEIGER

@<TRIPOS>ATOM
      1 C         142.9942  134.7200  156.5414 C.ar    1  UNL1        0.1331
      2 C         141.7798  134.7773  155.6629 C.ar    1  UNL1        0.0346
      3 C         140.9840  136.0450  155.5653 C.ar    1  UNL1        0.0102
      4 C         141.4027  137.2554  156.3461 C.ar    1  UNL1        0.0849
      5 C         142.6171  137.1980  157.2246 C.ar    1  UNL1        0.1379
      6 N         143.4129  135.9303  157.3222 N.ar    1  UNL1       -0.2158
      7 C         144.8119  131.3202  156.0904 C.3     1  UNL1        0.0933
      8 C         145.2175  131.6825  157.4884 C.3     1  UNL1        0.0428
      9 C         144.5859  133.0001  157.8275 C.3     1  UNL1        0.0940
     10 N         143.7901  133.4522  156.6391 N.pl3   1  UNL1       -0.2915
     11 C         143.9298  132.4139  155.5655 C.3     1  UNL1        0.1117
     12 C         144.5299  128.7788  155.6303 C.2     1  UNL1        0.2460
     13 O         143.4368  128.7146  156.6555 O.2     1  UNL1       -0.2701
     14 N         145.2174  130.0817  155.3477 N.am    1  UNL1       -0.3007
     15 H         145.9348  130.1238  154.6749 H       1  UNL1        0.1497
     16 C         146.3482  127.0437  154.9723 C.2     1  UNL1        0.0048
     17 C         144.9353  127.5403  154.8876 C.2     1  UNL1        0.0577
     18 C         140.6068  138.5232  156.2485 C.2     1  UNL1        0.2455
     19 N         139.1230  138.4959  156.4663 N.am    1  UNL1       -0.3252
     20 O         141.2949  139.8182  155.9329 O.2     1  UNL1       -0.2703
     21 H         138.6714  137.6460  156.6734 H       1  UNL1        0.1453
     22 H         138.6007  139.3280  156.4022 H       1  UNL1        0.1453
     23 N         143.0358  138.4084  158.0054 N.pl3   1  UNL1       -0.2966
     24 H         143.5830  139.1057  157.5768 H       1  UNL1        0.1537
     25 C         142.6209  138.5565  159.4392 C.ar    1  UNL1        0.0689
     26 C         143.6095  138.2960  160.5369 C.ar    1  UNL1        0.0191
     27 C         143.1944  138.4441  161.9707 C.ar    1  UNL1        0.0356
     28 C         141.7908  138.8526  162.3069 C.ar    1  UNL1        0.1319
     29 N         140.8022  139.1130  161.2093 N.ar    1  UNL1       -0.2279
     30 C         141.2172  138.9650  159.7755 C.ar    1  UNL1        0.1149
     31 N         141.3758  139.0006  163.7408 N.pl3   1  UNL1       -0.2883
     32 C         142.4091  138.9697  164.8277 C.3     1  UNL1        0.1216
     33 C         141.9941  139.1178  166.2614 C.3     1  UNL1        0.1350
     34 C         143.0274  139.0869  167.3483 C.3     1  UNL1        0.0339
     35 O         140.5458  139.2968  166.6084 O.3     1  UNL1       -0.3552
     36 C         139.5125  139.3277  165.5215 C.3     1  UNL1        0.1350
     37 C         138.0642  139.5066  165.8685 C.3     1  UNL1        0.0339
     38 C         139.9275  139.1796  164.0877 C.3     1  UNL1        0.1216
@<TRIPOS>BOND
     1    16    17    2
     2    17    12    1
     3    12    13    2
     4    12    14   am
     5     7    14    1
     6     7     8    1
     7     8     9    1
     8     9    10    1
     9    10     1    1
    10     1     2   ar
    11     2     3   ar
    12     3     4   ar
    13     4    18    1
    14    18    19   am
    15    18    20    2
    16     4     5   ar
    17     5    23    1
    18    23    25    1
    19    25    26   ar
    20    26    27   ar
    21    27    28   ar
    22    28    31    1
    23    31    32    1
    24    32    33    1
    25    33    34    1
    26    33    35    1
    27    35    36    1
    28    36    37    1
    29    36    38    1
    30    28    29   ar
    31    29    30   ar
    32     5     6   ar
    33    10    11    1
    34    11     7    1
    35     6     1   ar
    36    30    25   ar
    37    38    31    1
    38    14    15    1
    39    19    21    1
    40    19    22    1
    41    23    24    1
@<TRIPOS>MOLECULE
*****
 38 41 0 0 0
SMALL
GASTEIGER

@<TRIPOS>ATOM
      1 C         137.8432  140.6009  157.1257 C.ar    1  UNL1        0.1331
      2 C         138.6671  139.7963  156.1647 C.ar    1  UNL1        0.0346
      3 C         138.1106  139.4352  154.8194 C.ar    1  UNL1        0.0102
      4 C         136.7302  139.8787  154.4351 C.ar    1  UNL1        0.0849
      5 C         135.9063  140.6834  155.3961 C.ar    1  UNL1        0.1379
      6 N         136.4627  141.0445  156.7414 N.ar    1  UNL1       -0.2158
      7 C         139.0517  142.2314  160.4343 C.3     1  UNL1        0.0933
      8 C         139.4602  140.8040  160.6484 C.3     1  UNL1        0.0428
      9 C         139.0572  140.0195  159.4351 C.3     1  UNL1        0.0940
     10 N         138.3996  140.9620  158.4711 N.pl3   1  UNL1       -0.2915
     11 C         138.3962  142.3290  159.0886 C.3     1  UNL1        0.1117
     12 C         138.3579  143.5145  162.5843 C.2     1  UNL1        0.2460
     13 O         137.2440  142.5353  162.8091 O.2     1  UNL1       -0.2701
     14 N         139.2617  143.3625  161.3969 N.am    1  UNL1       -0.3007
     15 H         139.9928  144.0051  161.2493 H       1  UNL1        0.1497
     16 C         138.2426  144.4641  164.9998 C.2     1  UNL1        0.0048
     17 C         138.5680  144.6456  163.5468 C.2     1  UNL1        0.0577
     18 C         136.1737  139.5176  153.0897 C.2     1  UNL1        0.2455
     19 N         136.5763  138.2309  152.4323 N.am    1  UNL1       -0.3252
     20 O         135.2147  140.4433  152.4017 O.2     1  UNL1       -0.2703
     21 H         137.2058  137.6233  152.8839 H       1  UNL1        0.1453
     22 H         136.2111  137.9939  151.5493 H       1  UNL1        0.1453
     23 N         134.5258  141.1269  155.0118 N.pl3   1  UNL1       -0.2966
     24 H         134.4055  141.8237  154.3268 H       1  UNL1        0.1537
     25 C         133.3287  140.5089  155.6713 C.ar    1  UNL1        0.0689
     26 C         133.4467  139.1696  156.3363 C.ar    1  UNL1        0.0191
     27 C         132.2495  138.5516  156.9958 C.ar    1  UNL1        0.0356
     28 C         130.9344  139.2729  156.9902 C.ar    1  UNL1        0.1319
     29 N         130.8164  140.6123  156.3252 N.ar    1  UNL1       -0.2279
     30 C         132.0135  141.2303  155.6657 C.ar    1  UNL1        0.1149
     31 N         129.7372  138.6549  157.6497 N.pl3   1  UNL1       -0.2883
     32 C         129.0152  137.5217  156.9830 C.3     1  UNL1        0.1216
     33 C         127.8180  136.9037  157.6424 C.3     1  UNL1        0.1350
     34 C         127.0960  135.7705  156.9757 C.3     1  UNL1        0.0339
     35 O         127.3429  137.4190  158.9686 O.3     1  UNL1       -0.3552
     36 C         128.0649  138.5522  159.6353 C.3     1  UNL1        0.1350
     37 C         127.5897  139.0674  160.9615 C.3     1  UNL1        0.0339
     38 C         129.2620  139.1702  158.9759 C.3     1  UNL1        0.1216
@<TRIPOS>BOND
     1    16    17    2
     2    17    12    1
     3    12    13    2
     4    12    14   am
     5     7    14    1
     6     7     8    1
     7     8     9    1
     8     9    10    1
     9    10     1    1
    10     1     2   ar
    11     2     3   ar
    12     3     4   ar
    13     4    18    1
    14    18    19   am
    15    18    20    2
    16     4     5   ar
    17     5    23    1
    18    23    25    1
    19    25    26   ar
    20    26    27   ar
    21    27    28   ar
    22    28    31    1
    23    31    32    1
    24    32    33    1
    25    33    34    1
    26    33    35    1
    27    35    36    1
    28    36    37    1
    29    36    38    1
    30    28    29   ar
    31    29    30   ar
    32     5     6   ar
    33    10    11    1
    34    11     7    1
    35     6     1   ar
    36    30    25   ar
    37    38    31    1
    38    14    15    1
    39    19    21    1
    40    19    22    1
    41    23    24    1
