@<TRIPOS>MOLECULE
*****
 35 38 0 0 0
SMALL
GASTEIGER

@<TRIPOS>ATOM
      1 C         139.7310  142.9138  164.6068 C.ar    1  UNL1        0.0835
      2 C         138.2537  143.1694  164.6538 C.ar    1  UNL1        0.1147
      3 N         137.4831  143.3510  163.3798 N.ar    1  UNL1       -0.2409
      4 C         138.1897  143.2769  162.0588 C.ar    1  UNL1        0.1002
      5 C         139.6670  143.0213  162.0118 C.ar    1  UNL1        0.0337
      6 C         140.4376  142.8397  163.2858 C.ar    1  UNL1        0.0645
      7 N         141.9150  142.5841  163.2388 N.pl3   1  UNL1       -0.3064
      8 C         142.4338  141.1769  163.2647 C.3     1  UNL1        0.0922
      9 C         143.9111  140.9213  163.2177 C.3     1  UNL1        0.0369
     10 C         144.8696  142.0728  163.1449 C.3     1  UNL1        0.0542
     11 N         146.3469  141.8172  163.0979 N.3     1  UNL1       -0.3221
     12 C         144.3508  143.4800  163.1190 C.3     1  UNL1        0.0369
     13 C         142.8734  143.7356  163.1660 C.3     1  UNL1        0.0922
     14 H         146.5190  140.8121  163.1238 H       1  UNL1        0.1188
     15 H         146.7942  142.2595  163.9008 H       1  UNL1        0.1188
     16 C         140.3737  142.9473  160.6908 C.ar    1  UNL1        0.0021
     17 C         140.7948  144.2070  159.9938 C.ar    1  UNL1       -0.0042
     18 C         141.5015  144.1329  158.6728 C.ar    1  UNL1       -0.0222
     19 C         141.9226  145.3927  157.9758 C.3     1  UNL1        0.0310
     20 C         141.7871  142.7992  158.0487 C.ar    1  UNL1       -0.0085
     21 C         141.3660  141.5395  158.7456 C.ar    1  UNL1       -0.0222
     22 C         141.6515  140.2056  158.1216 C.3     1  UNL1        0.0310
     23 C         140.6593  141.6135  160.0667 C.ar    1  UNL1       -0.0042
     24 C         140.6036  141.3737  166.5086 C.2     1  UNL1        0.2495
     25 O         139.9350  140.1967  165.8622 O.2     1  UNL1       -0.2698
     26 N         140.5016  142.7322  165.8809 N.am    1  UNL1       -0.2782
     27 H         140.9405  143.5047  166.3051 H       1  UNL1        0.1552
     28 C         143.0059  143.4065  170.6434 C.3     1  UNL1        0.0310
     29 C         142.5754  142.2085  169.8500 C.ar    1  UNL1       -0.0220
     30 C         142.9156  140.8289  170.3306 C.ar    1  UNL1       -0.0085
     31 C         142.4851  139.6309  169.5372 C.ar    1  UNL1       -0.0220
     32 C         142.8253  138.2513  170.0178 C.3     1  UNL1        0.0310
     33 C         141.7145  139.8125  168.2632 C.ar    1  UNL1        0.0002
     34 C         141.3743  141.1921  167.7826 C.ar    1  UNL1        0.0530
     35 C         141.8048  142.3901  168.5760 C.ar    1  UNL1        0.0002
@<TRIPOS>BOND
     1    28    29    1
     2    29    30   ar
     3    30    31   ar
     4    31    32    1
     5    31    33   ar
     6    33    34   ar
     7    34    24    1
     8    24    25    2
     9    24    26   am
    10    26     1    1
    11     1     2   ar
    12     2     3   ar
    13     3     4   ar
    14     4     5   ar
    15     5    16    1
    16    16    17   ar
    17    17    18   ar
    18    18    19    1
    19    18    20   ar
    20    20    21   ar
    21    21    22    1
    22    21    23   ar
    23     5     6   ar
    24     6     7    1
    25     7     8    1
    26     8     9    1
    27     9    10    1
    28    10    11    1
    29    10    12    1
    30    12    13    1
    31    34    35   ar
    32    35    29   ar
    33     6     1   ar
    34    13     7    1
    35    23    16   ar
    36    26    27    1
    37    11    14    1
    38    11    15    1
@<TRIPOS>MOLECULE
*****
 35 38 0 0 0
SMALL
GASTEIGER

@<TRIPOS>ATOM
      1 C         139.7248  142.9242  164.6094 C.ar    1  UNL1        0.0835
      2 C         138.2477  143.1818  164.6497 C.ar    1  UNL1        0.1147
      3 N         137.4827  143.3615  163.3721 N.ar    1  UNL1       -0.2409
      4 C         138.1948  143.2835  162.0542 C.ar    1  UNL1        0.1002
      5 C         139.6719  143.0259  162.0139 C.ar    1  UNL1        0.0337
      6 C         140.4370  142.8463  163.2916 C.ar    1  UNL1        0.0645
      7 N         141.9142  142.5887  163.2514 N.pl3   1  UNL1       -0.3064
      8 C         142.8746  143.7391  163.1878 C.3     1  UNL1        0.0922
      9 C         144.3518  143.4816  163.1476 C.3     1  UNL1        0.0369
     10 C         144.8685  142.0736  163.1710 C.3     1  UNL1        0.0542
     11 N         146.3457  141.8160  163.1308 N.3     1  UNL1       -0.3221
     12 C         143.9081  140.9231  163.2345 C.3     1  UNL1        0.0369
     13 C         142.4309  141.1807  163.2747 C.3     1  UNL1        0.0922
     14 H         146.8447  142.7047  163.0895 H       1  UNL1        0.1188
     15 H         146.5716  141.2605  162.3057 H       1  UNL1        0.1188
     16 C         140.3840  142.9480  160.6960 C.ar    1  UNL1        0.0021
     17 C         140.6693  141.6125  160.0755 C.ar    1  UNL1       -0.0042
     18 C         141.3814  141.5346  158.7576 C.ar    1  UNL1       -0.0222
     19 C         141.6666  140.1990  158.1371 C.3     1  UNL1        0.0310
     20 C         141.8082  142.7921  158.0603 C.ar    1  UNL1       -0.0085
     21 C         141.5230  144.1276  158.6808 C.ar    1  UNL1       -0.0222
     22 C         141.9499  145.3852  157.9834 C.3     1  UNL1        0.0310
     23 C         140.8109  144.2055  159.9987 C.ar    1  UNL1       -0.0042
     24 C         140.6170  141.3814  166.4999 C.2     1  UNL1        0.2495
     25 O         139.9790  140.1978  165.8349 O.2     1  UNL1       -0.2698
     26 N         140.4900  142.7446  165.8871 N.am    1  UNL1       -0.2782
     27 H         140.9087  143.5214  166.3235 H       1  UNL1        0.1552
     28 C         142.8322  138.2646  170.0181 C.3     1  UNL1        0.0310
     29 C         142.4897  139.6432  169.5366 C.ar    1  UNL1       -0.0220
     30 C         142.9123  140.8422  170.3328 C.ar    1  UNL1       -0.0085
     31 C         142.5698  142.2209  169.8513 C.ar    1  UNL1       -0.0220
     32 C         142.9924  143.4199  170.6474 C.3     1  UNL1        0.0310
     33 C         141.8047  142.4007  168.5736 C.ar    1  UNL1        0.0002
     34 C         141.3821  141.2017  167.7775 C.ar    1  UNL1        0.0530
     35 C         141.7246  139.8229  168.2590 C.ar    1  UNL1        0.0002
@<TRIPOS>BOND
     1    28    29    1
     2    29    30   ar
     3    30    31   ar
     4    31    32    1
     5    31    33   ar
     6    33    34   ar
     7    34    24    1
     8    24    25    2
     9    24    26   am
    10    26     1    1
    11     1     2   ar
    12     2     3   ar
    13     3     4   ar
    14     4     5   ar
    15     5    16    1
    16    16    17   ar
    17    17    18   ar
    18    18    19    1
    19    18    20   ar
    20    20    21   ar
    21    21    22    1
    22    21    23   ar
    23     5     6   ar
    24     6     7    1
    25     7     8    1
    26     8     9    1
    27     9    10    1
    28    10    11    1
    29    10    12    1
    30    12    13    1
    31    34    35   ar
    32    35    29   ar
    33     6     1   ar
    34    13     7    1
    35    23    16   ar
    36    26    27    1
    37    11    14    1
    38    11    15    1
@<TRIPOS>MOLECULE
*****
 35 38 0 0 0
SMALL
GASTEIGER

@<TRIPOS>ATOM
      1 C         142.6022  139.7653  164.5553 C.ar    1  UNL1        0.0835
      2 C         143.6404  138.7542  164.9421 C.ar    1  UNL1        0.1147
      3 N         143.8232  138.3808  166.3833 N.ar    1  UNL1       -0.2409
      4 C         142.9678  139.0185  167.4377 C.ar    1  UNL1        0.1002
      5 C         141.9296  140.0296  167.0508 C.ar    1  UNL1        0.0337
      6 C         141.7468  140.4031  165.6096 C.ar    1  UNL1        0.0645
      7 N         140.7086  141.4143  165.2227 N.pl3   1  UNL1       -0.3064
      8 C         141.0795  142.8630  165.1062 C.3     1  UNL1        0.0922
      9 C         140.0414  143.8742  164.7193 C.3     1  UNL1        0.0369
     10 C         138.6323  143.4366  164.4488 C.3     1  UNL1        0.0542
     11 N         137.5941  144.4478  164.0619 N.3     1  UNL1       -0.3221
     12 C         138.2614  141.9879  164.5653 C.3     1  UNL1        0.0369
     13 C         139.2996  140.9767  164.9522 C.3     1  UNL1        0.0922
     14 H         138.0177  145.3752  164.0312 H       1  UNL1        0.1188
     15 H         136.8402  144.4409  164.7488 H       1  UNL1        0.1188
     16 C         141.0742  140.6674  168.1051 C.ar    1  UNL1        0.0021
     17 C         141.3649  142.0663  168.5618 C.ar    1  UNL1       -0.0042
     18 C         140.5095  142.7040  169.6161 C.ar    1  UNL1       -0.0222
     19 C         140.8001  144.1030  170.0728 C.3     1  UNL1        0.0310
     20 C         139.3635  141.9428  170.2138 C.ar    1  UNL1       -0.0085
     21 C         139.0729  140.5439  169.7571 C.ar    1  UNL1       -0.0222
     22 C         137.9268  139.7827  170.3548 C.3     1  UNL1        0.0310
     23 C         139.9283  139.9062  168.7028 C.ar    1  UNL1       -0.0042
     24 C         143.1836  141.2927  162.5355 C.2     1  UNL1        0.2495
     25 O         144.1306  142.0730  163.3982 O.2     1  UNL1       -0.2698
     26 N         142.4194  140.1388  163.1140 N.am    1  UNL1       -0.2782
     27 H         141.7979  139.6266  162.5478 H       1  UNL1        0.1552
     28 C         145.2139  142.4775  157.9015 C.3     1  UNL1        0.0310
     29 C         144.0159  142.2586  158.7773 C.ar    1  UNL1       -0.0220
     30 C         142.6352  142.4132  158.2119 C.ar    1  UNL1       -0.0085
     31 C         141.4373  142.1943  159.0876 C.ar    1  UNL1       -0.0220
     32 C         140.0566  142.3488  158.5222 C.3     1  UNL1        0.0310
     33 C         141.6200  141.8207  160.5289 C.ar    1  UNL1        0.0002
     34 C         143.0008  141.6662  161.0943 C.ar    1  UNL1        0.0530
     35 C         144.1987  141.8851  160.2185 C.ar    1  UNL1        0.0002
@<TRIPOS>BOND
     1    28    29    1
     2    29    30   ar
     3    30    31   ar
     4    31    32    1
     5    31    33   ar
     6    33    34   ar
     7    34    24    1
     8    24    25    2
     9    24    26   am
    10    26     1    1
    11     1     2   ar
    12     2     3   ar
    13     3     4   ar
    14     4     5   ar
    15     5    16    1
    16    16    17   ar
    17    17    18   ar
    18    18    19    1
    19    18    20   ar
    20    20    21   ar
    21    21    22    1
    22    21    23   ar
    23     5     6   ar
    24     6     7    1
    25     7     8    1
    26     8     9    1
    27     9    10    1
    28    10    11    1
    29    10    12    1
    30    12    13    1
    31    34    35   ar
    32    35    29   ar
    33     6     1   ar
    34    13     7    1
    35    23    16   ar
    36    26    27    1
    37    11    14    1
    38    11    15    1
@<TRIPOS>MOLECULE
*****
 35 38 0 0 0
SMALL
GASTEIGER

@<TRIPOS>ATOM
      1 C         139.4315  141.8726  163.4573 C.ar    1  UNL1        0.0835
      2 C         137.9546  141.8472  163.1962 C.ar    1  UNL1        0.1147
      3 N         137.4430  141.6347  161.8023 N.ar    1  UNL1       -0.2409
      4 C         138.4082  141.4477  160.6695 C.ar    1  UNL1        0.1002
      5 C         139.8851  141.4731  160.9306 C.ar    1  UNL1        0.0337
      6 C         140.3967  141.6855  162.3245 C.ar    1  UNL1        0.0645
      7 N         141.8736  141.7109  162.5856 N.pl3   1  UNL1       -0.3064
      8 C         142.6271  143.0055  162.5064 C.3     1  UNL1        0.0922
      9 C         144.1039  143.0309  162.7676 C.3     1  UNL1        0.0369
     10 C         144.8274  141.7617  163.1079 C.3     1  UNL1        0.0542
     11 N         146.3042  141.7871  163.3690 N.3     1  UNL1       -0.3221
     12 C         144.0739  140.4671  163.1871 C.3     1  UNL1        0.0369
     13 C         142.5970  140.4417  162.9259 C.3     1  UNL1        0.0922
     14 H         146.6501  142.7419  163.2729 H       1  UNL1        0.1188
     15 H         146.7788  141.1843  162.6968 H       1  UNL1        0.1188
     16 C         140.8503  141.2860  159.7977 C.ar    1  UNL1        0.0021
     17 C         141.3509  142.4764  159.0346 C.ar    1  UNL1       -0.0042
     18 C         142.3162  142.2893  157.9018 C.ar    1  UNL1       -0.0222
     19 C         142.8168  143.4798  157.1387 C.3     1  UNL1        0.0310
     20 C         142.7808  140.9119  157.5320 C.ar    1  UNL1       -0.0085
     21 C         142.2801  139.7215  158.2951 C.ar    1  UNL1       -0.0222
     22 C         142.7447  138.3440  157.9253 C.3     1  UNL1        0.0310
     23 C         141.3149  139.9086  159.4279 C.ar    1  UNL1       -0.0042
     24 C         140.0166  140.9314  165.8072 C.2     1  UNL1        0.2495
     25 O         139.5784  139.5653  165.3691 O.2     1  UNL1       -0.2698
     26 N         139.9432  142.0850  164.8513 N.am    1  UNL1       -0.2782
     27 H         140.2308  142.9816  165.1388 H       1  UNL1        0.1552
     28 C         140.6203  143.9938  169.9613 C.3     1  UNL1        0.0310
     29 C         140.8301  142.6750  169.2782 C.ar    1  UNL1       -0.0220
     30 C         141.5516  141.5686  169.9890 C.ar    1  UNL1       -0.0085
     31 C         141.7615  140.2498  169.3059 C.ar    1  UNL1       -0.0220
     32 C         142.4830  139.1434  170.0167 C.3     1  UNL1        0.0310
     33 C         141.2498  140.0373  167.9119 C.ar    1  UNL1        0.0002
     34 C         140.5283  141.1438  167.2011 C.ar    1  UNL1        0.0530
     35 C         140.3185  142.4626  167.8843 C.ar    1  UNL1        0.0002
@<TRIPOS>BOND
     1    28    29    1
     2    29    30   ar
     3    30    31   ar
     4    31    32    1
     5    31    33   ar
     6    33    34   ar
     7    34    24    1
     8    24    25    2
     9    24    26   am
    10    26     1    1
    11     1     2   ar
    12     2     3   ar
    13     3     4   ar
    14     4     5   ar
    15     5    16    1
    16    16    17   ar
    17    17    18   ar
    18    18    19    1
    19    18    20   ar
    20    20    21   ar
    21    21    22    1
    22    21    23   ar
    23     5     6   ar
    24     6     7    1
    25     7     8    1
    26     8     9    1
    27     9    10    1
    28    10    11    1
    29    10    12    1
    30    12    13    1
    31    34    35   ar
    32    35    29   ar
    33     6     1   ar
    34    13     7    1
    35    23    16   ar
    36    26    27    1
    37    11    14    1
    38    11    15    1
@<TRIPOS>MOLECULE
*****
 35 38 0 0 0
SMALL
GASTEIGER

@<TRIPOS>ATOM
      1 C         139.4360  141.8206  163.4233 C.ar    1  UNL1        0.0835
      2 C         137.9588  141.7846  163.1650 C.ar    1  UNL1        0.1147
      3 N         137.4461  141.5706  161.7718 N.ar    1  UNL1       -0.2409
      4 C         138.4104  141.3927  160.6367 C.ar    1  UNL1        0.1002
      5 C         139.8876  141.4287  160.8949 C.ar    1  UNL1        0.0337
      6 C         140.4003  141.6427  162.2882 C.ar    1  UNL1        0.0645
      7 N         141.8775  141.6787  162.5465 N.pl3   1  UNL1       -0.3064
      8 C         142.6168  142.9828  162.4922 C.3     1  UNL1        0.0922
      9 C         144.0939  143.0189  162.7504 C.3     1  UNL1        0.0369
     10 C         144.8319  141.7509  163.0631 C.3     1  UNL1        0.0542
     11 N         146.3090  141.7869  163.3213 N.3     1  UNL1       -0.3221
     12 C         144.0926  140.4468  163.1174 C.3     1  UNL1        0.0369
     13 C         142.6154  140.4108  162.8591 C.3     1  UNL1        0.0922
     14 H         146.6443  142.7471  163.2440 H       1  UNL1        0.1188
     15 H         146.7884  141.2032  162.6359 H       1  UNL1        0.1188
     16 C         140.8520  141.2508  159.7599 C.ar    1  UNL1        0.0021
     17 C         141.3101  139.8757  159.3736 C.ar    1  UNL1       -0.0042
     18 C         142.2745  139.6978  158.2385 C.ar    1  UNL1       -0.0222
     19 C         142.7326  138.3226  157.8522 C.3     1  UNL1        0.0310
     20 C         142.7807  140.8949  157.4898 C.ar    1  UNL1       -0.0085
     21 C         142.3226  142.2699  157.8762 C.ar    1  UNL1       -0.0222
     22 C         142.8288  143.4671  157.1275 C.3     1  UNL1        0.0310
     23 C         141.3582  142.4479  159.0112 C.ar    1  UNL1       -0.0042
     24 C         140.0272  140.8812  165.7723 C.2     1  UNL1        0.2495
     25 O         139.5927  139.5137  165.3347 O.2     1  UNL1       -0.2698
     26 N         139.9488  142.0346  164.8166 N.am    1  UNL1       -0.2782
     27 H         140.2339  142.9321  165.1038 H       1  UNL1        0.1552
     28 C         140.6251  143.9447  169.9264 C.3     1  UNL1        0.0310
     29 C         140.8389  142.6269  169.2427 C.ar    1  UNL1       -0.0220
     30 C         141.5656  141.5230  169.9522 C.ar    1  UNL1       -0.0085
     31 C         141.7794  140.2052  169.2684 C.ar    1  UNL1       -0.0220
     32 C         142.5061  139.1013  169.9779 C.3     1  UNL1        0.0310
     33 C         141.2666  139.9912  167.8751 C.ar    1  UNL1        0.0002
     34 C         140.5400  141.0951  167.1656 C.ar    1  UNL1        0.0530
     35 C         140.3261  142.4130  167.8494 C.ar    1  UNL1        0.0002
@<TRIPOS>BOND
     1    28    29    1
     2    29    30   ar
     3    30    31   ar
     4    31    32    1
     5    31    33   ar
     6    33    34   ar
     7    34    24    1
     8    24    25    2
     9    24    26   am
    10    26     1    1
    11     1     2   ar
    12     2     3   ar
    13     3     4   ar
    14     4     5   ar
    15     5    16    1
    16    16    17   ar
    17    17    18   ar
    18    18    19    1
    19    18    20   ar
    20    20    21   ar
    21    21    22    1
    22    21    23   ar
    23     5     6   ar
    24     6     7    1
    25     7     8    1
    26     8     9    1
    27     9    10    1
    28    10    11    1
    29    10    12    1
    30    12    13    1
    31    34    35   ar
    32    35    29   ar
    33     6     1   ar
    34    13     7    1
    35    23    16   ar
    36    26    27    1
    37    11    14    1
    38    11    15    1
@<TRIPOS>MOLECULE
*****
 35 38 0 0 0
SMALL
GASTEIGER

@<TRIPOS>ATOM
      1 C         139.8058  139.2923  163.6269 C.ar    1  UNL1        0.0835
      2 C         138.4258  138.7380  163.4316 C.ar    1  UNL1        0.1147
      3 N         137.9045  138.4947  162.0463 N.ar    1  UNL1       -0.2409
      4 C         138.7633  138.8056  160.8564 C.ar    1  UNL1        0.1002
      5 C         140.1433  139.3599  161.0518 C.ar    1  UNL1        0.0337
      6 C         140.6646  139.6033  162.4370 C.ar    1  UNL1        0.0645
      7 N         142.0447  140.1576  162.6325 N.pl3   1  UNL1       -0.3064
      8 C         143.2247  139.2328  162.6791 C.3     1  UNL1        0.0922
      9 C         144.6047  139.7870  162.8745 C.3     1  UNL1        0.0369
     10 C         144.8048  141.2662  163.0233 C.3     1  UNL1        0.0542
     11 N         146.1848  141.8205  163.2187 N.3     1  UNL1       -0.3221
     12 C         143.6248  142.1911  162.9767 C.3     1  UNL1        0.0369
     13 C         142.2447  141.6367  162.7812 C.3     1  UNL1        0.0922
     14 H         146.8604  141.0563  163.2252 H       1  UNL1        0.1188
     15 H         146.2280  142.3200  164.1070 H       1  UNL1        0.1188
     16 C         141.0020  139.6709  159.8619 C.ar    1  UNL1        0.0021
     17 C         141.5776  138.5556  159.0404 C.ar    1  UNL1       -0.0042
     18 C         142.4363  138.8666  157.8505 C.ar    1  UNL1       -0.0222
     19 C         143.0119  137.7512  157.0289 C.3     1  UNL1        0.0310
     20 C         142.7196  140.2928  157.4821 C.ar    1  UNL1       -0.0085
     21 C         142.1440  141.4080  158.3036 C.ar    1  UNL1       -0.0222
     22 C         142.4272  142.8343  157.9353 C.3     1  UNL1        0.0310
     23 C         141.2853  141.0971  159.4935 C.ar    1  UNL1       -0.0042
     24 C         139.9617  140.7951  165.7406 C.2     1  UNL1        0.2495
     25 O         139.0748  141.8110  165.0837 O.2     1  UNL1       -0.2698
     26 N         140.3272  139.5357  165.0123 N.am    1  UNL1       -0.2782
     27 H         140.9092  138.8690  165.4434 H       1  UNL1        0.1552
     28 C         140.5774  143.9433  169.8283 C.3     1  UNL1        0.0310
     29 C         140.7908  142.6126  169.1697 C.ar    1  UNL1       -0.0220
     30 C         141.5256  141.5254  169.8964 C.ar    1  UNL1       -0.0085
     31 C         141.7390  140.1947  169.2379 C.ar    1  UNL1       -0.0220
     32 C         142.4737  139.1075  169.9646 C.3     1  UNL1        0.0310
     33 C         141.2177  139.9512  167.8526 C.ar    1  UNL1        0.0002
     34 C         140.4830  141.0385  167.1259 C.ar    1  UNL1        0.0530
     35 C         140.2695  142.3692  167.7845 C.ar    1  UNL1        0.0002
@<TRIPOS>BOND
     1    28    29    1
     2    29    30   ar
     3    30    31   ar
     4    31    32    1
     5    31    33   ar
     6    33    34   ar
     7    34    24    1
     8    24    25    2
     9    24    26   am
    10    26     1    1
    11     1     2   ar
    12     2     3   ar
    13     3     4   ar
    14     4     5   ar
    15     5    16    1
    16    16    17   ar
    17    17    18   ar
    18    18    19    1
    19    18    20   ar
    20    20    21   ar
    21    21    22    1
    22    21    23   ar
    23     5     6   ar
    24     6     7    1
    25     7     8    1
    26     8     9    1
    27     9    10    1
    28    10    11    1
    29    10    12    1
    30    12    13    1
    31    34    35   ar
    32    35    29   ar
    33     6     1   ar
    34    13     7    1
    35    23    16   ar
    36    26    27    1
    37    11    14    1
    38    11    15    1
@<TRIPOS>MOLECULE
*****
 35 38 0 0 0
SMALL
GASTEIGER

@<TRIPOS>ATOM
      1 C         139.3998  141.7498  163.4916 C.ar    1  UNL1        0.0835
      2 C         137.9212  141.6956  163.2452 C.ar    1  UNL1        0.1147
      3 N         137.4002  141.4525  161.8597 N.ar    1  UNL1       -0.2409
      4 C         138.3578  141.2635  160.7208 C.ar    1  UNL1        0.1002
      5 C         139.8364  141.3176  160.9673 C.ar    1  UNL1        0.0337
      6 C         140.3574  141.5608  162.3527 C.ar    1  UNL1        0.0645
      7 N         141.8360  141.6149  162.5992 N.pl3   1  UNL1       -0.3064
      8 C         142.5847  140.3625  162.9471 C.3     1  UNL1        0.0922
      9 C         144.0633  140.4166  163.1936 C.3     1  UNL1        0.0369
     10 C         144.7933  141.7232  163.0922 C.3     1  UNL1        0.0542
     11 N         146.2719  141.7773  163.3388 N.3     1  UNL1       -0.3221
     12 C         144.0446  142.9755  162.7443 C.3     1  UNL1        0.0369
     13 C         142.5660  142.9214  162.4978 C.3     1  UNL1        0.0922
     14 H         146.6140  140.8424  163.5609 H       1  UNL1        0.1188
     15 H         146.4636  142.4041  164.1203 H       1  UNL1        0.1188
     16 C         140.7941  141.1286  159.8283 C.ar    1  UNL1        0.0021
     17 C         141.2776  142.3162  159.0500 C.ar    1  UNL1       -0.0042
     18 C         142.2352  142.1272  157.9111 C.ar    1  UNL1       -0.0222
     19 C         142.7188  143.3149  157.1328 C.3     1  UNL1        0.0310
     20 C         142.7093  140.7506  157.5504 C.ar    1  UNL1       -0.0085
     21 C         142.2258  139.5630  158.3287 C.ar    1  UNL1       -0.0222
     22 C         142.6999  138.1863  157.9680 C.3     1  UNL1        0.0310
     23 C         141.2681  139.7520  159.4676 C.ar    1  UNL1       -0.0042
     24 C         140.0247  140.8557  165.8496 C.2     1  UNL1        0.2495
     25 O         139.6075  139.4752  165.4367 O.2     1  UNL1       -0.2698
     26 N         139.9208  141.9929  164.8771 N.am    1  UNL1       -0.2782
     27 H         140.1946  142.8990  165.1481 H       1  UNL1        0.1552
     28 C         142.5544  139.1741  170.0654 C.3     1  UNL1        0.0310
     29 C         141.8106  140.2580  169.3430 C.ar    1  UNL1       -0.0220
     30 C         141.5877  141.5849  170.0059 C.ar    1  UNL1       -0.0085
     31 C         140.8439  142.6688  169.2835 C.ar    1  UNL1       -0.0220
     32 C         140.6211  143.9957  169.9465 C.3     1  UNL1        0.0310
     33 C         140.3229  142.4257  167.8980 C.ar    1  UNL1        0.0002
     34 C         140.5457  141.0988  167.2350 C.ar    1  UNL1        0.0530
     35 C         141.2896  140.0149  167.9575 C.ar    1  UNL1        0.0002
@<TRIPOS>BOND
     1    28    29    1
     2    29    30   ar
     3    30    31   ar
     4    31    32    1
     5    31    33   ar
     6    33    34   ar
     7    34    24    1
     8    24    25    2
     9    24    26   am
    10    26     1    1
    11     1     2   ar
    12     2     3   ar
    13     3     4   ar
    14     4     5   ar
    15     5    16    1
    16    16    17   ar
    17    17    18   ar
    18    18    19    1
    19    18    20   ar
    20    20    21   ar
    21    21    22    1
    22    21    23   ar
    23     5     6   ar
    24     6     7    1
    25     7     8    1
    26     8     9    1
    27     9    10    1
    28    10    11    1
    29    10    12    1
    30    12    13    1
    31    34    35   ar
    32    35    29   ar
    33     6     1   ar
    34    13     7    1
    35    23    16   ar
    36    26    27    1
    37    11    14    1
    38    11    15    1
@<TRIPOS>MOLECULE
*****
 35 38 0 0 0
SMALL
GASTEIGER

@<TRIPOS>ATOM
      1 C         139.6357  143.6650  162.6720 C.ar    1  UNL1        0.0835
      2 C         139.2328  145.1099  162.6803 C.ar    1  UNL1        0.1147
      3 N         139.5753  145.9906  161.5154 N.ar    1  UNL1       -0.2409
      4 C         140.3207  145.4265  160.3423 C.ar    1  UNL1        0.1002
      5 C         140.7236  143.9816  160.3341 C.ar    1  UNL1        0.0337
      6 C         140.3811  143.1009  161.4990 C.ar    1  UNL1        0.0645
      7 N         140.7840  141.6560  161.4908 N.pl3   1  UNL1       -0.3064
      8 C         139.8624  140.6237  160.9118 C.3     1  UNL1        0.0922
      9 C         140.2653  139.1789  160.9036 C.3     1  UNL1        0.0369
     10 C         141.5897  138.7662  161.4744 C.3     1  UNL1        0.0542
     11 N         141.9925  137.3214  161.4662 N.3     1  UNL1       -0.3221
     12 C         142.5112  139.7985  162.0534 C.3     1  UNL1        0.0369
     13 C         142.1083  141.2434  162.0616 C.3     1  UNL1        0.0922
     14 H         141.2525  136.7646  161.0388 H       1  UNL1        0.1188
     15 H         142.1455  137.0057  162.4240 H       1  UNL1        0.1188
     16 C         141.4690  143.4175  159.1610 C.ar    1  UNL1        0.0021
     17 C         140.7200  142.9722  157.9401 C.ar    1  UNL1       -0.0042
     18 C         141.4654  142.4081  156.7671 C.ar    1  UNL1       -0.0222
     19 C         140.7162  141.9628  155.5461 C.3     1  UNL1        0.0310
     20 C         142.9599  142.2893  156.8148 C.ar    1  UNL1       -0.0085
     21 C         143.7089  142.7346  158.0357 C.ar    1  UNL1       -0.0222
     22 C         145.2035  142.6157  158.0835 C.3     1  UNL1        0.0310
     23 C         142.9635  143.2987  159.2088 C.ar    1  UNL1       -0.0042
     24 C         140.2754  142.6056  164.9564 C.2     1  UNL1        0.2495
     25 O         141.6002  143.3077  164.9110 O.2     1  UNL1       -0.2698
     26 N         139.2931  142.7842  163.8370 N.am    1  UNL1       -0.2782
     27 H         138.4237  142.3234  163.8668 H       1  UNL1        0.1552
     28 C         137.8352  138.4441  166.8870 C.3     1  UNL1        0.0310
     29 C         138.7128  139.6441  167.0866 C.ar    1  UNL1       -0.0220
     30 C         139.2480  139.9633  168.4511 C.ar    1  UNL1       -0.0085
     31 C         140.1256  141.1632  168.6507 C.ar    1  UNL1       -0.0220
     32 C         140.6607  141.4825  170.0151 C.3     1  UNL1        0.0310
     33 C         140.4681  142.0441  167.4858 C.ar    1  UNL1        0.0002
     34 C         139.9329  141.7248  166.1213 C.ar    1  UNL1        0.0530
     35 C         139.0553  140.5248  165.9218 C.ar    1  UNL1        0.0002
@<TRIPOS>BOND
     1    28    29    1
     2    29    30   ar
     3    30    31   ar
     4    31    32    1
     5    31    33   ar
     6    33    34   ar
     7    34    24    1
     8    24    25    2
     9    24    26   am
    10    26     1    1
    11     1     2   ar
    12     2     3   ar
    13     3     4   ar
    14     4     5   ar
    15     5    16    1
    16    16    17   ar
    17    17    18   ar
    18    18    19    1
    19    18    20   ar
    20    20    21   ar
    21    21    22    1
    22    21    23   ar
    23     5     6   ar
    24     6     7    1
    25     7     8    1
    26     8     9    1
    27     9    10    1
    28    10    11    1
    29    10    12    1
    30    12    13    1
    31    34    35   ar
    32    35    29   ar
    33     6     1   ar
    34    13     7    1
    35    23    16   ar
    36    26    27    1
    37    11    14    1
    38    11    15    1
@<TRIPOS>MOLECULE
*****
 35 38 0 0 0
SMALL
GASTEIGER

@<TRIPOS>ATOM
      1 C         139.6425  143.6503  162.6163 C.ar    1  UNL1        0.0835
      2 C         139.2234  145.0905  162.6054 C.ar    1  UNL1        0.1147
      3 N         139.5595  145.9604  161.4307 N.ar    1  UNL1       -0.2409
      4 C         140.3147  145.3902  160.2668 C.ar    1  UNL1        0.1002
      5 C         140.7338  143.9501  160.2777 C.ar    1  UNL1        0.0337
      6 C         140.3977  143.0801  161.4525 C.ar    1  UNL1        0.0645
      7 N         140.8168  141.6398  161.4634 N.pl3   1  UNL1       -0.3064
      8 C         142.1413  141.2486  162.0489 C.3     1  UNL1        0.0922
      9 C         142.5604  139.8084  162.0599 C.3     1  UNL1        0.0369
     10 C         141.6551  138.7593  161.4854 C.3     1  UNL1        0.0542
     11 N         142.0742  137.3192  161.4964 N.3     1  UNL1       -0.3221
     12 C         140.3306  139.1506  160.8999 C.3     1  UNL1        0.0369
     13 C         139.9115  140.5909  160.8890 C.3     1  UNL1        0.0922
     14 H         142.9945  137.2362  161.9282 H       1  UNL1        0.1188
     15 H         142.1151  136.9696  160.5390 H       1  UNL1        0.1188
     16 C         141.4890  143.3799  159.1139 C.ar    1  UNL1        0.0021
     17 C         142.9845  143.2770  159.1680 C.ar    1  UNL1       -0.0042
     18 C         143.7397  142.7068  158.0041 C.ar    1  UNL1       -0.0222
     19 C         145.2352  142.6040  158.0583 C.3     1  UNL1        0.0310
     20 C         142.9994  142.2394  156.7862 C.ar    1  UNL1       -0.0085
     21 C         141.5039  142.3423  156.7320 C.ar    1  UNL1       -0.0222
     22 C         140.7636  141.8749  155.5140 C.3     1  UNL1        0.0310
     23 C         140.7487  142.9125  157.8959 C.ar    1  UNL1       -0.0042
     24 C         140.2865  142.6282  164.9165 C.2     1  UNL1        0.2495
     25 O         141.6026  143.3462  164.8670 O.2     1  UNL1       -0.2698
     26 N         139.3065  142.7802  163.7911 N.am    1  UNL1       -0.2782
     27 H         138.4427  142.3090  163.8236 H       1  UNL1        0.1552
     28 C         137.8606  138.4822  166.8978 C.3     1  UNL1        0.0310
     29 C         138.7375  139.6851  167.0819 C.ar    1  UNL1       -0.0220
     30 C         139.2784  140.0180  168.4408 C.ar    1  UNL1       -0.0085
     31 C         140.1553  141.2210  168.6250 C.ar    1  UNL1       -0.0220
     32 C         140.6961  141.5539  169.9839 C.3     1  UNL1        0.0310
     33 C         140.4913  142.0911  167.4502 C.ar    1  UNL1        0.0002
     34 C         139.9505  141.7581  166.0913 C.ar    1  UNL1        0.0530
     35 C         139.0735  140.5551  165.9072 C.ar    1  UNL1        0.0002
@<TRIPOS>BOND
     1    28    29    1
     2    29    30   ar
     3    30    31   ar
     4    31    32    1
     5    31    33   ar
     6    33    34   ar
     7    34    24    1
     8    24    25    2
     9    24    26   am
    10    26     1    1
    11     1     2   ar
    12     2     3   ar
    13     3     4   ar
    14     4     5   ar
    15     5    16    1
    16    16    17   ar
    17    17    18   ar
    18    18    19    1
    19    18    20   ar
    20    20    21   ar
    21    21    22    1
    22    21    23   ar
    23     5     6   ar
    24     6     7    1
    25     7     8    1
    26     8     9    1
    27     9    10    1
    28    10    11    1
    29    10    12    1
    30    12    13    1
    31    34    35   ar
    32    35    29   ar
    33     6     1   ar
    34    13     7    1
    35    23    16   ar
    36    26    27    1
    37    11    14    1
    38    11    15    1
