@<TRIPOS>MOLECULE
*****
 25 26 0 0 0
SMALL
GASTEIGER

@<TRIPOS>ATOM
      1 C         137.8543  141.1540  162.9277 C.ar    1  UNL1        0.2360
      2 N         138.1246  141.0252  164.3975 N.ar    1  UNL1       -0.2064
      3 C         138.5275  139.6997  164.9726 C.ar    1  UNL1        0.1388
      4 C         138.6601  138.5031  164.0780 C.ar    1  UNL1        0.0387
      5 C         138.3898  138.6319  162.6082 C.ar    1  UNL1        0.0575
      6 N         138.5224  137.4353  161.7135 N.pl3   1  UNL1       -0.3563
      7 C         137.9869  139.9574  162.0331 C.ar    1  UNL1        0.1343
      8 H         138.7869  136.5653  162.0909 H       1  UNL1        0.1424
      9 H         138.3450  137.5198  160.7488 H       1  UNL1        0.1424
     10 C         138.7978  139.5709  166.4425 C.2     1  UNL1        0.2640
     11 O         137.9224  138.6985  167.2924 O.2     1  UNL1       -0.2685
     12 N         139.9436  140.3146  167.0623 N.am    1  UNL1       -0.2956
     13 H         140.5181  140.8872  166.5044 H       1  UNL1        0.1501
     14 C         140.2139  140.1858  168.5321 C.3     1  UNL1        0.1182
     15 C         141.1359  141.1537  169.2127 C.ar    1  UNL1        0.0166
     16 C         142.5621  141.2730  168.7639 C.ar    1  UNL1        0.0005
     17 C         143.4841  142.2409  169.4446 C.ar    1  UNL1        0.0204
     18 C         142.9798  143.0894  170.5740 C.ar    1  UNL1        0.0989
     19 N         141.5534  142.9700  171.0229 N.ar    1  UNL1       -0.2426
     20 C         140.6315  142.0022  170.3422 C.ar    1  UNL1        0.0962
     21 C         137.7166  140.0862  160.5632 C.1     1  UNL1        0.1064
     22 N         137.4462  140.2150  159.0934 N.1     1  UNL1       -0.1906
     23 O         137.4513  142.4795  162.3526 O.3     1  UNL1       -0.4597
     24 C         138.9626  144.4629  163.0822 C.3     1  UNL1        0.0512
     25 C         137.6528  143.7348  163.1485 C.3     1  UNL1        0.2073
@<TRIPOS>BOND
     1    24    25    1
     2    25    23    1
     3    23     1    1
     4     1     2   ar
     5     2     3   ar
     6     3    10    1
     7    10    11    2
     8    10    12   am
     9    12    14    1
    10    14    15    1
    11    15    16   ar
    12    16    17   ar
    13    17    18   ar
    14    18    19   ar
    15    19    20   ar
    16     3     4   ar
    17     4     5   ar
    18     5     6    1
    19     5     7   ar
    20     7    21    1
    21    21    22    3
    22     7     1   ar
    23    20    15   ar
    24    12    13    1
    25     6     8    1
    26     6     9    1
@<TRIPOS>MOLECULE
*****
 25 26 0 0 0
SMALL
GASTEIGER

@<TRIPOS>ATOM
      1 C         140.7288  141.5821  168.1094 C.ar    1  UNL1        0.2360
      2 N         140.3709  141.0427  166.7563 N.ar    1  UNL1       -0.2064
      3 C         139.2781  140.0243  166.6199 C.ar    1  UNL1        0.1388
      4 C         138.5432  139.5452  167.8366 C.ar    1  UNL1        0.0387
      5 C         138.9011  140.0846  169.1897 C.ar    1  UNL1        0.0575
      6 N         138.1662  139.6056  170.4065 N.pl3   1  UNL1       -0.3563
      7 C         139.9939  141.1030  169.3261 C.ar    1  UNL1        0.1343
      8 H         137.4489  138.9372  170.3170 H       1  UNL1        0.1424
      9 H         138.4011  139.9596  171.2946 H       1  UNL1        0.1424
     10 C         138.9202  139.4849  165.2667 C.2     1  UNL1        0.2640
     11 O         138.1473  140.3338  164.3013 O.2     1  UNL1       -0.2685
     12 N         139.3352  138.0966  164.8789 N.am    1  UNL1       -0.2956
     13 H         139.8425  137.5394  165.5126 H       1  UNL1        0.1501
     14 C         138.9774  137.5572  163.5258 C.3     1  UNL1        0.1182
     15 C         139.8720  137.8235  162.3516 C.ar    1  UNL1        0.0166
     16 C         141.3570  137.6626  162.4885 C.ar    1  UNL1        0.0005
     17 C         142.2517  137.9290  161.3143 C.ar    1  UNL1        0.0204
     18 C         141.6613  138.3562  160.0033 C.ar    1  UNL1        0.0989
     19 N         140.1762  138.5172  159.8664 N.ar    1  UNL1       -0.2426
     20 C         139.2816  138.2508  161.0406 C.ar    1  UNL1        0.0962
     21 C         140.3518  141.6424  170.6793 C.1     1  UNL1        0.1064
     22 N         140.7097  142.1818  172.0324 N.1     1  UNL1       -0.1906
     23 O         141.8216  142.6005  168.2458 O.3     1  UNL1       -0.4597
     24 C         143.9392  142.4473  169.7432 C.3     1  UNL1        0.0512
     25 C         143.2398  142.1562  168.4486 C.3     1  UNL1        0.2073
@<TRIPOS>BOND
     1    24    25    1
     2    25    23    1
     3    23     1    1
     4     1     2   ar
     5     2     3   ar
     6     3    10    1
     7    10    11    2
     8    10    12   am
     9    12    14    1
    10    14    15    1
    11    15    16   ar
    12    16    17   ar
    13    17    18   ar
    14    18    19   ar
    15    19    20   ar
    16     3     4   ar
    17     4     5   ar
    18     5     6    1
    19     5     7   ar
    20     7    21    1
    21    21    22    3
    22     7     1   ar
    23    20    15   ar
    24    12    13    1
    25     6     8    1
    26     6     9    1
@<TRIPOS>MOLECULE
*****
 25 26 0 0 0
SMALL
GASTEIGER

@<TRIPOS>ATOM
      1 C         142.1613  141.8623  167.6415 C.ar    1  UNL1        0.2360
      2 N         141.4298  141.0019  166.6543 N.ar    1  UNL1       -0.2064
      3 C         140.1685  140.2994  167.0615 C.ar    1  UNL1        0.1388
      4 C         139.6387  140.4574  168.4559 C.ar    1  UNL1        0.0387
      5 C         140.3702  141.3178  169.4431 C.ar    1  UNL1        0.0575
      6 N         139.8404  141.4759  170.8375 N.pl3   1  UNL1       -0.3563
      7 C         141.6315  142.0203  169.0359 C.ar    1  UNL1        0.1343
      8 H         139.0126  141.0149  171.1048 H       1  UNL1        0.1424
      9 H         140.3205  142.0406  171.4855 H       1  UNL1        0.1424
     10 C         139.4370  139.4390  166.0742 C.2     1  UNL1        0.2640
     11 O         137.9374  139.4407  166.0444 O.2     1  UNL1       -0.2685
     12 N         140.2053  138.5769  165.1169 N.am    1  UNL1       -0.2956
     13 H         141.1896  138.5758  165.1365 H       1  UNL1        0.1501
     14 C         139.4739  137.7165  164.1296 C.3     1  UNL1        0.1182
     15 C         139.2660  138.1981  162.7244 C.ar    1  UNL1        0.0166
     16 C         137.9823  138.8754  162.3460 C.ar    1  UNL1        0.0005
     17 C         137.7743  139.3571  160.9407 C.ar    1  UNL1        0.0204
     18 C         138.8500  139.1614  159.9139 C.ar    1  UNL1        0.0989
     19 N         140.1338  138.4841  160.2923 N.ar    1  UNL1       -0.2426
     20 C         140.3418  138.0024  161.6975 C.ar    1  UNL1        0.0962
     21 C         142.3629  142.8807  170.0232 C.1     1  UNL1        0.1064
     22 N         143.0944  143.7412  171.0103 N.1     1  UNL1       -0.1906
     23 O         143.4225  142.5647  167.2343 O.3     1  UNL1       -0.4597
     24 C         144.5946  143.8127  165.2802 C.3     1  UNL1        0.0512
     25 C         143.8032  142.6429  165.7856 C.3     1  UNL1        0.2073
@<TRIPOS>BOND
     1    24    25    1
     2    25    23    1
     3    23     1    1
     4     1     2   ar
     5     2     3   ar
     6     3    10    1
     7    10    11    2
     8    10    12   am
     9    12    14    1
    10    14    15    1
    11    15    16   ar
    12    16    17   ar
    13    17    18   ar
    14    18    19   ar
    15    19    20   ar
    16     3     4   ar
    17     4     5   ar
    18     5     6    1
    19     5     7   ar
    20     7    21    1
    21    21    22    3
    22     7     1   ar
    23    20    15   ar
    24    12    13    1
    25     6     8    1
    26     6     9    1
@<TRIPOS>MOLECULE
*****
 25 26 0 0 0
SMALL
GASTEIGER

@<TRIPOS>ATOM
      1 C         140.7895  142.1298  167.6019 C.ar    1  UNL1        0.2360
      2 N         141.5524  141.3584  166.5661 N.ar    1  UNL1       -0.2064
      3 C         142.3617  140.1610  166.9678 C.ar    1  UNL1        0.1388
      4 C         142.4080  139.7350  168.4053 C.ar    1  UNL1        0.0387
      5 C         141.6451  140.5064  169.4410 C.ar    1  UNL1        0.0575
      6 N         141.6914  140.0805  170.8786 N.pl3   1  UNL1       -0.3563
      7 C         140.8358  141.7038  169.0393 C.ar    1  UNL1        0.1343
      8 H         142.2226  139.2946  171.1422 H       1  UNL1        0.1424
      9 H         141.1907  140.5868  171.5584 H       1  UNL1        0.1424
     10 C         143.1246  139.3896  165.9319 C.2     1  UNL1        0.2640
     11 O         143.7860  138.0940  166.2978 O.2     1  UNL1       -0.2685
     12 N         143.2262  139.9139  164.5302 N.am    1  UNL1       -0.2956
     13 H         142.7921  140.7643  164.2901 H       1  UNL1        0.1501
     14 C         143.9891  139.1426  163.4944 C.3     1  UNL1        0.1182
     15 C         143.3692  138.8678  162.1564 C.ar    1  UNL1        0.0166
     16 C         141.9132  138.5197  162.0616 C.ar    1  UNL1        0.0005
     17 C         141.2934  138.2449  160.7236 C.ar    1  UNL1        0.0204
     18 C         142.1294  138.3182  159.4804 C.ar    1  UNL1        0.0989
     19 N         143.5854  138.6663  159.5752 N.ar    1  UNL1       -0.2426
     20 C         144.2053  138.9411  160.9132 C.ar    1  UNL1        0.0962
     21 C         140.0729  142.4752  170.0752 C.1     1  UNL1        0.1064
     22 N         139.3099  143.2466  171.1109 N.1     1  UNL1       -0.1906
     23 O         139.9802  143.3272  167.2002 O.3     1  UNL1       -0.4597
     24 C         138.8333  144.7466  165.3509 C.3     1  UNL1        0.0512
     25 C         139.7196  143.6038  165.7491 C.3     1  UNL1        0.2073
@<TRIPOS>BOND
     1    24    25    1
     2    25    23    1
     3    23     1    1
     4     1     2   ar
     5     2     3   ar
     6     3    10    1
     7    10    11    2
     8    10    12   am
     9    12    14    1
    10    14    15    1
    11    15    16   ar
    12    16    17   ar
    13    17    18   ar
    14    18    19   ar
    15    19    20   ar
    16     3     4   ar
    17     4     5   ar
    18     5     6    1
    19     5     7   ar
    20     7    21    1
    21    21    22    3
    22     7     1   ar
    23    20    15   ar
    24    12    13    1
    25     6     8    1
    26     6     9    1
@<TRIPOS>MOLECULE
*****
 25 26 0 0 0
SMALL
GASTEIGER

@<TRIPOS>ATOM
      1 C         141.2652  137.8765  162.7231 C.ar    1  UNL1        0.2360
      2 N         141.4481  138.0505  164.2016 N.ar    1  UNL1       -0.2064
      3 C         142.7157  138.6494  164.7352 C.ar    1  UNL1        0.1388
      4 C         143.8002  139.0744  163.7902 C.ar    1  UNL1        0.0387
      5 C         143.6173  138.9004  162.3116 C.ar    1  UNL1        0.0575
      6 N         144.7019  139.3254  161.3665 N.pl3   1  UNL1       -0.3563
      7 C         142.3497  138.3015  161.7780 C.ar    1  UNL1        0.1343
      8 H         145.5338  139.7185  161.7167 H       1  UNL1        0.1424
      9 H         144.5818  139.2112  160.3961 H       1  UNL1        0.1424
     10 C         142.8986  138.8234  166.2139 C.2     1  UNL1        0.2640
     11 O         143.9446  138.0294  166.9387 O.2     1  UNL1       -0.2685
     12 N         142.0354  139.7913  166.9676 N.am    1  UNL1       -0.2956
     13 H         141.3489  140.3124  166.4918 H       1  UNL1        0.1501
     14 C         142.2183  139.9652  168.4462 C.3     1  UNL1        0.1182
     15 C         141.4100  140.9892  169.1865 C.ar    1  UNL1        0.0166
     16 C         141.8252  142.4304  169.1661 C.ar    1  UNL1        0.0005
     17 C         141.0169  143.4544  169.9065 C.ar    1  UNL1        0.0204
     18 C         139.7934  143.0371  170.6672 C.ar    1  UNL1        0.0989
     19 N         139.3781  141.5959  170.6877 N.ar    1  UNL1       -0.2426
     20 C         140.1864  140.5719  169.9473 C.ar    1  UNL1        0.0962
     21 C         142.1668  138.1276  160.2994 C.1     1  UNL1        0.1064
     22 N         141.9839  137.9536  158.8208 N.1     1  UNL1       -0.1906
     23 O         139.9976  137.2776  162.1895 O.3     1  UNL1       -0.4597
     24 C         138.7947  139.5799  162.2406 C.3     1  UNL1        0.0512
     25 C         138.7317  138.0822  162.1852 C.3     1  UNL1        0.2073
@<TRIPOS>BOND
     1    24    25    1
     2    25    23    1
     3    23     1    1
     4     1     2   ar
     5     2     3   ar
     6     3    10    1
     7    10    11    2
     8    10    12   am
     9    12    14    1
    10    14    15    1
    11    15    16   ar
    12    16    17   ar
    13    17    18   ar
    14    18    19   ar
    15    19    20   ar
    16     3     4   ar
    17     4     5   ar
    18     5     6    1
    19     5     7   ar
    20     7    21    1
    21    21    22    3
    22     7     1   ar
    23    20    15   ar
    24    12    13    1
    25     6     8    1
    26     6     9    1
@<TRIPOS>MOLECULE
*****
 25 26 0 0 0
SMALL
GASTEIGER

@<TRIPOS>ATOM
      1 C         139.7630  140.1931  167.1177 C.ar    1  UNL1        0.2360
      2 N         140.8644  140.4652  166.1366 N.ar    1  UNL1       -0.2064
      3 C         142.2233  140.8686  166.6273 C.ar    1  UNL1        0.1388
      4 C         142.4807  140.9999  168.0992 C.ar    1  UNL1        0.0387
      5 C         141.3792  140.7278  169.0803 C.ar    1  UNL1        0.0575
      6 N         141.6366  140.8590  170.5523 N.pl3   1  UNL1       -0.3563
      7 C         140.0204  140.3244  168.5896 C.ar    1  UNL1        0.1343
      8 H         142.5285  141.1238  170.8744 H       1  UNL1        0.1424
      9 H         140.9137  140.6804  171.1963 H       1  UNL1        0.1424
     10 C         143.3248  141.1407  165.6460 C.2     1  UNL1        0.2640
     11 O         143.7857  142.5480  165.4072 O.2     1  UNL1       -0.2685
     12 N         143.9652  140.0056  164.9036 N.am    1  UNL1       -0.2956
     13 H         143.6626  139.0819  165.0604 H       1  UNL1        0.1501
     14 C         145.0666  140.2776  163.9224 C.3     1  UNL1        0.1182
     15 C         144.7360  140.7080  162.5241 C.ar    1  UNL1        0.0166
     16 C         144.9821  142.1248  162.0974 C.ar    1  UNL1        0.0005
     17 C         144.6515  142.5552  160.6991 C.ar    1  UNL1        0.0204
     18 C         144.0747  141.5688  159.7273 C.ar    1  UNL1        0.0989
     19 N         143.8285  140.1519  160.1540 N.ar    1  UNL1       -0.2426
     20 C         144.1591  139.7215  161.5523 C.ar    1  UNL1        0.0962
     21 C         138.9189  140.0522  169.5709 C.1     1  UNL1        0.1064
     22 N         137.8175  139.7802  170.5521 N.1     1  UNL1       -0.1906
     23 O         138.4041  139.7897  166.6270 O.3     1  UNL1       -0.4597
     24 C         138.8293  137.6343  165.2401 C.3     1  UNL1        0.0512
     25 C         138.1066  138.3469  166.3446 C.3     1  UNL1        0.2073
@<TRIPOS>BOND
     1    24    25    1
     2    25    23    1
     3    23     1    1
     4     1     2   ar
     5     2     3   ar
     6     3    10    1
     7    10    11    2
     8    10    12   am
     9    12    14    1
    10    14    15    1
    11    15    16   ar
    12    16    17   ar
    13    17    18   ar
    14    18    19   ar
    15    19    20   ar
    16     3     4   ar
    17     4     5   ar
    18     5     6    1
    19     5     7   ar
    20     7    21    1
    21    21    22    3
    22     7     1   ar
    23    20    15   ar
    24    12    13    1
    25     6     8    1
    26     6     9    1
@<TRIPOS>MOLECULE
*****
 25 26 0 0 0
SMALL
GASTEIGER

@<TRIPOS>ATOM
      1 C         139.9189  138.9833  162.5096 C.ar    1  UNL1        0.2360
      2 N         140.5344  138.9038  163.8751 N.ar    1  UNL1       -0.2064
      3 C         139.9033  139.6303  165.0257 C.ar    1  UNL1        0.1388
      4 C         138.6566  140.4363  164.8108 C.ar    1  UNL1        0.0387
      5 C         138.0411  140.5157  163.4452 C.ar    1  UNL1        0.0575
      6 N         136.7944  141.3216  163.2302 N.pl3   1  UNL1       -0.3563
      7 C         138.6722  139.7892  162.2946 C.ar    1  UNL1        0.1343
      8 H         136.3801  141.7985  163.9854 H       1  UNL1        0.1424
      9 H         136.3904  141.3738  162.3339 H       1  UNL1        0.1424
     10 C         140.5189  139.5509  166.3913 C.2     1  UNL1        0.2640
     11 O         141.9053  139.0033  166.5583 O.2     1  UNL1       -0.2685
     12 N         139.7480  140.0191  167.5899 N.am    1  UNL1       -0.2956
     13 H         138.8380  140.3785  167.4803 H       1  UNL1        0.1501
     14 C         140.3635  139.9396  168.9554 C.3     1  UNL1        0.1182
     15 C         141.2374  141.0538  169.4502 C.ar    1  UNL1        0.0166
     16 C         142.7265  140.9657  169.2923 C.ar    1  UNL1        0.0005
     17 C         143.6004  142.0800  169.7871 C.ar    1  UNL1        0.0204
     18 C         142.9852  143.2823  170.4397 C.ar    1  UNL1        0.0989
     19 N         141.4961  143.3705  170.5976 N.ar    1  UNL1       -0.2426
     20 C         140.6222  142.2562  170.1028 C.ar    1  UNL1        0.0962
     21 C         138.0566  139.8687  160.9290 C.1     1  UNL1        0.1064
     22 N         137.4411  139.9481  159.5635 N.1     1  UNL1       -0.1906
     23 O         140.5501  138.2568  161.3590 O.3     1  UNL1       -0.4597
     24 C         143.0172  139.0578  161.2124 C.3     1  UNL1        0.0512
     25 C         142.0184  137.9512  161.3796 C.3     1  UNL1        0.2073
@<TRIPOS>BOND
     1    24    25    1
     2    25    23    1
     3    23     1    1
     4     1     2   ar
     5     2     3   ar
     6     3    10    1
     7    10    11    2
     8    10    12   am
     9    12    14    1
    10    14    15    1
    11    15    16   ar
    12    16    17   ar
    13    17    18   ar
    14    18    19   ar
    15    19    20   ar
    16     3     4   ar
    17     4     5   ar
    18     5     6    1
    19     5     7   ar
    20     7    21    1
    21    21    22    3
    22     7     1   ar
    23    20    15   ar
    24    12    13    1
    25     6     8    1
    26     6     9    1
@<TRIPOS>MOLECULE
*****
 25 26 0 0 0
SMALL
GASTEIGER

@<TRIPOS>ATOM
      1 C         143.3281  141.8883  162.5872 C.ar    1  UNL1        0.2360
      2 N         143.0548  141.4180  163.9851 N.ar    1  UNL1       -0.2064
      3 C         143.2584  139.9760  164.3445 C.ar    1  UNL1        0.1388
      4 C         143.7353  139.0043  163.3060 C.ar    1  UNL1        0.0387
      5 C         144.0086  139.4747  161.9082 C.ar    1  UNL1        0.0575
      6 N         144.4855  138.5030  160.8696 N.pl3   1  UNL1       -0.3563
      7 C         143.8049  140.9167  161.5487 C.ar    1  UNL1        0.1343
      8 H         144.6191  137.5565  161.1055 H       1  UNL1        0.1424
      9 H         144.6648  138.8117  159.9521 H       1  UNL1        0.1424
     10 C         142.9852  139.5056  165.7424 C.2     1  UNL1        0.2640
     11 O         143.7498  138.3449  166.3062 O.2     1  UNL1       -0.2685
     12 N         141.9472  140.1962  166.5766 N.am    1  UNL1       -0.2956
     13 H         141.4453  140.9580  166.2065 H       1  UNL1        0.1501
     14 C         141.6739  139.7259  167.9744 C.3     1  UNL1        0.1182
     15 C         141.1745  140.6927  169.0069 C.ar    1  UNL1        0.0166
     16 C         140.8491  142.1042  168.6173 C.ar    1  UNL1        0.0005
     17 C         140.3498  143.0710  169.6497 C.ar    1  UNL1        0.0204
     18 C         140.1759  142.6264  171.0717 C.ar    1  UNL1        0.0989
     19 N         140.5013  141.2149  171.4613 N.ar    1  UNL1       -0.2426
     20 C         141.0007  140.2480  170.4289 C.ar    1  UNL1        0.0962
     21 C         144.0782  141.3870  160.1508 C.1     1  UNL1        0.1064
     22 N         144.3515  141.8573  158.7529 N.1     1  UNL1       -0.1906
     23 O         143.1244  143.3303  162.2278 O.3     1  UNL1       -0.4597
     24 C         143.6113  145.0697  164.0952 C.3     1  UNL1        0.0512
     25 C         144.0111  144.3839  162.8225 C.3     1  UNL1        0.2073
@<TRIPOS>BOND
     1    24    25    1
     2    25    23    1
     3    23     1    1
     4     1     2   ar
     5     2     3   ar
     6     3    10    1
     7    10    11    2
     8    10    12   am
     9    12    14    1
    10    14    15    1
    11    15    16   ar
    12    16    17   ar
    13    17    18   ar
    14    18    19   ar
    15    19    20   ar
    16     3     4   ar
    17     4     5   ar
    18     5     6    1
    19     5     7   ar
    20     7    21    1
    21    21    22    3
    22     7     1   ar
    23    20    15   ar
    24    12    13    1
    25     6     8    1
    26     6     9    1
@<TRIPOS>MOLECULE
*****
 25 26 0 0 0
SMALL
GASTEIGER

@<TRIPOS>ATOM
      1 C         140.4448  144.6228  162.6949 C.ar    1  UNL1        0.2360
      2 N         141.0900  144.2119  163.9852 N.ar    1  UNL1       -0.2064
      3 C         142.4628  143.6075  163.9781 C.ar    1  UNL1        0.1388
      4 C         143.1904  143.4140  162.6807 C.ar    1  UNL1        0.0387
      5 C         142.5452  143.8249  161.3905 C.ar    1  UNL1        0.0575
      6 N         143.2728  143.6314  160.0930 N.pl3   1  UNL1       -0.3563
      7 C         141.1724  144.4293  161.3976 C.ar    1  UNL1        0.1343
      8 H         144.1738  143.2348  160.0884 H       1  UNL1        0.1424
      9 H         142.8493  143.9011  159.2462 H       1  UNL1        0.1424
     10 C         143.1081  143.1966  165.2684 C.2     1  UNL1        0.2640
     11 O         144.5605  143.4862  165.5062 O.2     1  UNL1       -0.2685
     12 N         142.3008  142.4961  166.3208 N.am    1  UNL1       -0.2956
     13 H         141.3476  142.3060  166.1647 H       1  UNL1        0.1501
     14 C         142.9460  142.0851  167.6111 C.3     1  UNL1        0.1182
     15 C         142.1452  142.0726  168.8794 C.ar    1  UNL1        0.0166
     16 C         140.8490  142.8235  168.9555 C.ar    1  UNL1        0.0005
     17 C         140.0482  142.8109  170.2238 C.ar    1  UNL1        0.0204
     18 C         140.5437  142.0474  171.4160 C.ar    1  UNL1        0.0989
     19 N         141.8399  141.2964  171.3400 N.ar    1  UNL1       -0.2426
     20 C         142.6407  141.3090  170.0717 C.ar    1  UNL1        0.0962
     21 C         140.5271  144.8402  160.1072 C.1     1  UNL1        0.1064
     22 N         139.8819  145.2512  158.8170 N.1     1  UNL1       -0.1906
     23 O         139.0719  145.2272  162.7020 O.3     1  UNL1       -0.4597
     24 C         137.7834  142.9717  162.6533 C.3     1  UNL1        0.0512
     25 C         137.8894  144.3978  163.1063 C.3     1  UNL1        0.2073
@<TRIPOS>BOND
     1    24    25    1
     2    25    23    1
     3    23     1    1
     4     1     2   ar
     5     2     3   ar
     6     3    10    1
     7    10    11    2
     8    10    12   am
     9    12    14    1
    10    14    15    1
    11    15    16   ar
    12    16    17   ar
    13    17    18   ar
    14    18    19   ar
    15    19    20   ar
    16     3     4   ar
    17     4     5   ar
    18     5     6    1
    19     5     7   ar
    20     7    21    1
    21    21    22    3
    22     7     1   ar
    23    20    15   ar
    24    12    13    1
    25     6     8    1
    26     6     9    1
