@<TRIPOS>MOLECULE
*****
 30 34 0 0 0
SMALL
GASTEIGER

@<TRIPOS>ATOM
      1 C         145.0365  140.0380  164.2897 C.3     1  UNL1        0.0294
      2 C         145.7184  141.2758  163.7867 C.3     1  UNL1        0.0666
      3 S         144.9039  142.4163  163.2523 S.3     1  UNL1       -0.0756
      4 C         141.0700  142.6467  163.8131 C.ar    1  UNL1        0.2029
      5 N         141.5862  143.2154  165.1016 N.ar    1  UNL1       -0.1250
      6 N         143.0851  143.1983  165.0483 N.ar    1  UNL1       -0.1220
      7 C         143.4954  142.6190  163.7269 C.ar    1  UNL1        0.1933
      8 N         142.2501  142.2781  162.9635 N.ar    1  UNL1       -0.2860
      9 C         142.1945  141.6745  161.5914 C.3     1  UNL1        0.1341
     10 C         139.1859  144.8847  162.3670 C.3     1  UNL1        0.0556
     11 C         138.7612  143.5051  162.7750 C.ar    1  UNL1        0.1001
     12 N         137.3959  142.9120  162.5900 N.ar    1  UNL1       -0.2085
     13 C         137.4182  141.5168  163.1404 C.ar    1  UNL1        0.2849
     14 O         138.7972  141.2476  163.6655 O.2     1  UNL1       -0.4283
     15 C         139.6272  142.4764  163.4397 C.ar    1  UNL1        0.1964
     16 C         144.3347  139.1250  163.3285 C.3     1  UNL1        0.0730
     17 N         142.9131  138.7189  163.5818 N.3     1  UNL1       -0.2724
     18 C         142.0729  137.8495  162.6939 C.3     1  UNL1        0.0725
     19 C         140.7227  137.7042  163.3309 C.3     1  UNL1        0.0227
     20 C         140.7284  138.4836  164.6124 C.3     1  UNL1        0.0350
     21 C         139.3746  137.8565  164.4573 C.3     1  UNL1        0.0101
     22 C         138.5437  138.2484  165.6431 C.3     1  UNL1        0.0264
     23 C         139.3838  139.1176  166.5309 C.ar    1  UNL1       -0.0261
     24 C         139.0938  139.7956  167.8372 C.ar    1  UNL1       -0.0041
     25 C         140.1540  140.6190  168.5064 C.ar    1  UNL1        0.0064
     26 C         141.5042  140.7644  167.8695 C.ar    1  UNL1        0.0342
     27 BR        142.5646  141.5878  168.5388 Br      1  UNL1       -0.0490
     28 C         141.7942  140.0864  166.5633 C.ar    1  UNL1        0.0021
     29 C         140.7340  139.2631  165.8940 C.ar    1  UNL1       -0.0249
     30 C         142.0821  139.1107  164.7676 C.3     1  UNL1        0.0761
@<TRIPOS>BOND
     1    10    11    1
     2    11    12   ar
     3    12    13   ar
     4    13    14   ar
     5    14    15   ar
     6    15     4    1
     7     4     5   ar
     8     5     6   ar
     9     6     7   ar
    10     7     3    1
    11     3     2    1
    12     2     1    1
    13     1    16    1
    14    16    17    1
    15    17    18    1
    16    18    19    1
    17    19    20    1
    18    20    21    1
    19    21    22    1
    20    22    23    1
    21    23    24   ar
    22    24    25   ar
    23    25    26   ar
    24    26    27    1
    25    26    28   ar
    26    28    29   ar
    27    20    30    1
    28     7     8   ar
    29     8     9    1
    30    15    11   ar
    31     8     4   ar
    32    30    17    1
    33    29    20    1
    34    29    23   ar
@<TRIPOS>MOLECULE
*****
 30 34 0 0 0
SMALL
GASTEIGER

@<TRIPOS>ATOM
      1 C         142.8616  145.0815  163.0885 C.3     1  UNL1        0.0294
      2 C         141.4214  145.4427  163.3016 C.3     1  UNL1        0.0666
      3 S         140.4157  145.1859  162.2189 S.3     1  UNL1       -0.0756
      4 C         138.5248  141.8046  162.4579 C.ar    1  UNL1        0.2029
      5 N         137.3988  142.7797  162.6357 N.ar    1  UNL1       -0.1250
      6 N         137.9701  144.1650  162.5678 N.ar    1  UNL1       -0.1220
      7 C         139.4491  144.0461  162.3480 C.ar    1  UNL1        0.1933
      8 N         139.7920  142.5874  162.2801 N.ar    1  UNL1       -0.2860
      9 C         141.1615  142.0124  162.0711 C.3     1  UNL1        0.1341
     10 C         139.7289  139.7835  164.7195 C.3     1  UNL1        0.0556
     11 C         138.9581  139.3805  163.4974 C.ar    1  UNL1        0.1001
     12 N         138.6054  137.9776  163.1003 N.ar    1  UNL1       -0.2085
     13 C         137.8340  138.0396  161.8154 C.ar    1  UNL1        0.2849
     14 O         137.7099  139.4808  161.4184 O.2     1  UNL1       -0.4283
     15 C         138.4046  140.3094  162.4579 C.ar    1  UNL1        0.1964
     16 C         143.6813  144.5600  164.2314 C.3     1  UNL1        0.0730
     17 N         143.7896  143.0821  164.4637 N.3     1  UNL1       -0.2724
     18 C         144.5359  142.1066  163.6026 C.3     1  UNL1        0.0725
     19 C         144.3782  140.7418  164.2046 C.3     1  UNL1        0.0227
     20 C         143.5345  140.8738  165.4378 C.3     1  UNL1        0.0350
     21 C         143.8982  139.4274  165.2777 C.3     1  UNL1        0.0101
     22 C         143.2793  138.6655  166.4119 C.3     1  UNL1        0.0264
     23 C         142.5330  139.6409  167.2729 C.ar    1  UNL1       -0.0261
     24 C         141.7302  139.4628  168.5274 C.ar    1  UNL1       -0.0041
     25 C         141.0851  140.6494  169.1799 C.ar    1  UNL1        0.0064
     26 C         141.2428  142.0142  168.5779 C.ar    1  UNL1        0.0342
     27 BR        140.5976  143.2009  169.2304 Br      1  UNL1       -0.0490
     28 C         142.0456  142.1923  167.3234 C.ar    1  UNL1        0.0021
     29 C         142.6907  141.0057  166.6709 C.ar    1  UNL1       -0.0249
     30 C         143.1707  142.3201  165.5979 C.3     1  UNL1        0.0761
@<TRIPOS>BOND
     1    10    11    1
     2    11    12   ar
     3    12    13   ar
     4    13    14   ar
     5    14    15   ar
     6    15     4    1
     7     4     5   ar
     8     5     6   ar
     9     6     7   ar
    10     7     3    1
    11     3     2    1
    12     2     1    1
    13     1    16    1
    14    16    17    1
    15    17    18    1
    16    18    19    1
    17    19    20    1
    18    20    21    1
    19    21    22    1
    20    22    23    1
    21    23    24   ar
    22    24    25   ar
    23    25    26   ar
    24    26    27    1
    25    26    28   ar
    26    28    29   ar
    27    20    30    1
    28     7     8   ar
    29     8     9    1
    30    15    11   ar
    31     8     4   ar
    32    30    17    1
    33    29    20    1
    34    29    23   ar
@<TRIPOS>MOLECULE
*****
 30 34 0 0 0
SMALL
GASTEIGER

@<TRIPOS>ATOM
      1 C         139.4777  137.9354  162.1819 C.3     1  UNL1        0.0294
      2 C         140.8347  137.5730  162.7084 C.3     1  UNL1        0.0666
      3 S         141.0148  137.2577  164.1637 S.3     1  UNL1       -0.0756
      4 C         141.4627  140.0050  166.8689 C.ar    1  UNL1        0.2029
      5 N         139.9786  140.0474  166.6555 N.ar    1  UNL1       -0.1250
      6 N         139.6301  139.0235  165.6162 N.ar    1  UNL1       -0.1220
      7 C         140.8990  138.3482  165.1872 C.ar    1  UNL1        0.1933
      8 N         142.0316  138.9547  165.9614 N.ar    1  UNL1       -0.2860
      9 C         143.4789  138.5773  165.8480 C.3     1  UNL1        0.1341
     10 C         143.2793  142.5966  166.0731 C.3     1  UNL1        0.0556
     11 C         143.0763  142.0534  167.4565 C.ar    1  UNL1        0.1001
     12 N         143.6726  142.6061  168.7171 N.ar    1  UNL1       -0.2085
     13 C         143.2062  141.7565  169.8619 C.ar    1  UNL1        0.2849
     14 O         142.3216  140.6786  169.3089 O.2     1  UNL1       -0.4283
     15 C         142.2413  140.8622  167.8223 C.ar    1  UNL1        0.1964
     16 C         139.2489  139.2816  161.5611 C.3     1  UNL1        0.0730
     17 N         138.9373  140.4646  162.4290 N.3     1  UNL1       -0.2724
     18 C         137.6649  140.6882  163.1913 C.3     1  UNL1        0.0725
     19 C         137.7848  141.9935  163.9205 C.3     1  UNL1        0.0227
     20 C         139.1312  142.5767  163.6089 C.3     1  UNL1        0.0350
     21 C         138.4189  143.5216  164.5307 C.3     1  UNL1        0.0101
     22 C         139.3251  144.6887  164.7888 C.3     1  UNL1        0.0264
     23 C         140.5974  144.4651  164.0266 C.ar    1  UNL1       -0.0261
     24 C         141.8497  145.2814  163.9023 C.ar    1  UNL1       -0.0041
     25 C         142.9821  144.7924  163.0488 C.ar    1  UNL1        0.0064
     26 C         142.8624  143.4872  162.3196 C.ar    1  UNL1        0.0342
     27 BR        143.9948  142.9981  161.4660 Br      1  UNL1       -0.0490
     28 C         141.6101  142.6708  162.4439 C.ar    1  UNL1        0.0021
     29 C         140.4777  143.1598  163.2974 C.ar    1  UNL1       -0.0249
     30 C         139.8436  141.6317  162.6871 C.3     1  UNL1        0.0761
@<TRIPOS>BOND
     1    10    11    1
     2    11    12   ar
     3    12    13   ar
     4    13    14   ar
     5    14    15   ar
     6    15     4    1
     7     4     5   ar
     8     5     6   ar
     9     6     7   ar
    10     7     3    1
    11     3     2    1
    12     2     1    1
    13     1    16    1
    14    16    17    1
    15    17    18    1
    16    18    19    1
    17    19    20    1
    18    20    21    1
    19    21    22    1
    20    22    23    1
    21    23    24   ar
    22    24    25   ar
    23    25    26   ar
    24    26    27    1
    25    26    28   ar
    26    28    29   ar
    27    20    30    1
    28     7     8   ar
    29     8     9    1
    30    15    11   ar
    31     8     4   ar
    32    30    17    1
    33    29    20    1
    34    29    23   ar
@<TRIPOS>MOLECULE
*****
 30 34 0 0 0
SMALL
GASTEIGER

@<TRIPOS>ATOM
      1 C         144.9742  140.9572  164.2859 C.3     1  UNL1        0.0294
      2 C         145.6447  141.8054  163.2461 C.3     1  UNL1        0.0666
      3 S         144.8969  142.2066  162.0092 S.3     1  UNL1       -0.0756
      4 C         141.0657  142.6895  162.4016 C.ar    1  UNL1        0.2029
      5 N         141.1163  141.4765  161.5206 N.ar    1  UNL1       -0.1250
      6 N         142.5576  141.1480  161.2664 N.ar    1  UNL1       -0.1220
      7 C         143.3978  142.1580  161.9903 C.ar    1  UNL1        0.1933
      8 N         142.4758  143.1107  162.6919 N.ar    1  UNL1       -0.2860
      9 C         142.8910  144.2793  163.5356 C.3     1  UNL1        0.1341
     10 C         140.1768  142.9900  165.5272 C.3     1  UNL1        0.0556
     11 C         139.4146  143.5012  164.3408 C.ar    1  UNL1        0.1001
     12 N         138.1100  144.2403  164.3826 N.ar    1  UNL1       -0.2085
     13 C         137.7123  144.5590  162.9719 C.ar    1  UNL1        0.2849
     14 O         138.7711  144.0169  162.0581 O.2     1  UNL1       -0.4283
     15 C         139.8232  143.3631  162.9041 C.ar    1  UNL1        0.1964
     16 C         144.8371  139.4787  164.0735 C.3     1  UNL1        0.0730
     17 N         143.5093  138.8962  163.6893 N.3     1  UNL1       -0.2724
     18 C         143.2053  138.1556  162.4207 C.3     1  UNL1        0.0725
     19 C         141.7605  137.7537  162.4536 C.3     1  UNL1        0.0227
     20 C         141.1716  138.2458  163.7424 C.3     1  UNL1        0.0350
     21 C         140.0908  137.5397  162.9787 C.3     1  UNL1        0.0101
     22 C         138.8340  137.5954  163.7956 C.3     1  UNL1        0.0264
     23 C         139.1380  138.3359  165.0640 C.ar    1  UNL1       -0.0261
     24 C         138.2860  138.6961  166.2448 C.ar    1  UNL1       -0.0041
     25 C         138.8786  139.4583  167.3927 C.ar    1  UNL1        0.0064
     26 C         140.3233  139.8603  167.3600 C.ar    1  UNL1        0.0342
     27 BR        140.9161  140.6225  168.5079 Br      1  UNL1       -0.0490
     28 C         141.1754  139.5001  166.1792 C.ar    1  UNL1        0.0021
     29 C         140.5827  138.7379  165.0312 C.ar    1  UNL1       -0.0249
     30 C         142.2524  138.9519  164.5061 C.3     1  UNL1        0.0761
@<TRIPOS>BOND
     1    10    11    1
     2    11    12   ar
     3    12    13   ar
     4    13    14   ar
     5    14    15   ar
     6    15     4    1
     7     4     5   ar
     8     5     6   ar
     9     6     7   ar
    10     7     3    1
    11     3     2    1
    12     2     1    1
    13     1    16    1
    14    16    17    1
    15    17    18    1
    16    18    19    1
    17    19    20    1
    18    20    21    1
    19    21    22    1
    20    22    23    1
    21    23    24   ar
    22    24    25   ar
    23    25    26   ar
    24    26    27    1
    25    26    28   ar
    26    28    29   ar
    27    20    30    1
    28     7     8   ar
    29     8     9    1
    30    15    11   ar
    31     8     4   ar
    32    30    17    1
    33    29    20    1
    34    29    23   ar
@<TRIPOS>MOLECULE
*****
 30 34 0 0 0
SMALL
GASTEIGER

@<TRIPOS>ATOM
      1 C         137.6730  141.7368  162.1686 C.3     1  UNL1        0.0294
      2 C         137.8270  141.4573  163.6343 C.3     1  UNL1        0.0666
      3 S         138.4171  140.1565  164.0919 S.3     1  UNL1       -0.0756
      4 C         139.3486  139.9149  167.8522 C.ar    1  UNL1        0.2029
      5 N         138.2024  138.9504  167.7749 N.ar    1  UNL1       -0.1250
      6 N         137.7139  138.9235  166.3569 N.ar    1  UNL1       -0.1220
      7 C         138.5583  139.8714  165.5578 C.ar    1  UNL1        0.1933
      8 N         139.5685  140.4841  166.4818 N.ar    1  UNL1       -0.2860
      9 C         140.6150  141.4895  166.1023 C.3     1  UNL1        0.1341
     10 C         142.5237  139.3228  168.3190 C.3     1  UNL1        0.0556
     11 C         141.5959  139.9790  169.2981 C.ar    1  UNL1        0.1001
     12 N         141.9646  140.4783  170.6636 N.ar    1  UNL1       -0.2085
     13 C         140.7331  141.0590  171.2930 C.ar    1  UNL1        0.2849
     14 O         139.6032  140.9186  170.3165 O.2     1  UNL1       -0.4283
     15 C         140.1365  140.2511  169.0835 C.ar    1  UNL1        0.1964
     16 C         138.8212  142.3057  161.3889 C.3     1  UNL1        0.0730
     17 N         139.8179  143.1994  162.0657 N.3     1  UNL1       -0.2724
     18 C         139.6310  144.6558  162.3719 C.3     1  UNL1        0.0725
     19 C         140.8740  145.1500  163.0506 C.3     1  UNL1        0.0227
     20 C         141.8292  143.9989  163.1638 C.3     1  UNL1        0.0350
     21 C         142.4819  145.2045  163.7726 C.3     1  UNL1        0.0101
     22 C         143.8405  144.7985  164.2620 C.3     1  UNL1        0.0264
     23 C         144.0273  143.3421  163.9557 C.ar    1  UNL1       -0.0261
     24 C         145.1688  142.4019  164.2072 C.ar    1  UNL1       -0.0041
     25 C         145.0672  140.9677  163.7800 C.ar    1  UNL1        0.0064
     26 C         143.8242  140.4735  163.1013 C.ar    1  UNL1        0.0342
     27 BR        143.7226  139.0391  162.6741 Br      1  UNL1       -0.0490
     28 C         142.6827  141.4136  162.8499 C.ar    1  UNL1        0.0021
     29 C         142.7843  142.8479  163.2771 C.ar    1  UNL1       -0.0249
     30 C         141.1764  142.7934  162.5551 C.3     1  UNL1        0.0761
@<TRIPOS>BOND
     1    10    11    1
     2    11    12   ar
     3    12    13   ar
     4    13    14   ar
     5    14    15   ar
     6    15     4    1
     7     4     5   ar
     8     5     6   ar
     9     6     7   ar
    10     7     3    1
    11     3     2    1
    12     2     1    1
    13     1    16    1
    14    16    17    1
    15    17    18    1
    16    18    19    1
    17    19    20    1
    18    20    21    1
    19    21    22    1
    20    22    23    1
    21    23    24   ar
    22    24    25   ar
    23    25    26   ar
    24    26    27    1
    25    26    28   ar
    26    28    29   ar
    27    20    30    1
    28     7     8   ar
    29     8     9    1
    30    15    11   ar
    31     8     4   ar
    32    30    17    1
    33    29    20    1
    34    29    23   ar
@<TRIPOS>MOLECULE
*****
 30 34 0 0 0
SMALL
GASTEIGER

@<TRIPOS>ATOM
      1 C         145.3830  140.8888  163.6145 C.3     1  UNL1        0.0294
      2 C         145.1509  142.2739  164.1415 C.3     1  UNL1        0.0666
      3 S         144.1114  143.1520  163.5105 S.3     1  UNL1       -0.0756
      4 C         140.6206  141.7007  162.6308 C.ar    1  UNL1        0.2029
      5 N         140.3655  142.2602  163.9991 N.ar    1  UNL1       -0.1250
      6 N         141.6421  142.8719  164.4951 N.ar    1  UNL1       -0.1220
      7 C         142.6862  142.6906  163.4335 C.ar    1  UNL1        0.1933
      8 N         142.0549  141.9668  162.2813 N.ar    1  UNL1       -0.2860
      9 C         142.7379  141.5773  161.0038 C.3     1  UNL1        0.1341
     10 C         137.4514  141.3038  163.3006 C.3     1  UNL1        0.0556
     11 C         138.1608  140.8162  162.0722 C.ar    1  UNL1        0.1001
     12 N         137.5381  140.0604  160.9359 N.ar    1  UNL1       -0.2085
     13 C         138.6099  139.7758  159.9258 C.ar    1  UNL1        0.2849
     14 O         139.8950  140.3556  160.4378 O.2     1  UNL1       -0.4283
     15 C         139.6175  140.9986  161.7643 C.ar    1  UNL1        0.1964
     16 C         144.8121  139.7055  164.3381 C.3     1  UNL1        0.0730
     17 N         143.5413  139.0720  163.8543 N.3     1  UNL1       -0.2724
     18 C         143.3579  138.3441  162.5557 C.3     1  UNL1        0.0725
     19 C         141.9341  137.8775  162.4830 C.3     1  UNL1        0.0227
     20 C         141.2377  138.3171  163.7367 C.3     1  UNL1        0.0350
     21 C         140.2444  137.5789  162.8892 C.3     1  UNL1        0.0101
     22 C         138.9340  137.5622  163.6192 C.3     1  UNL1        0.0264
     23 C         139.1176  138.2901  164.9177 C.ar    1  UNL1       -0.0261
     24 C         138.1722  138.5884  166.0435 C.ar    1  UNL1       -0.0041
     25 C         138.6506  139.3533  167.2419 C.ar    1  UNL1        0.0064
     26 C         140.0742  139.8199  167.3146 C.ar    1  UNL1        0.0342
     27 BR        140.5526  140.5848  168.5130 Br      1  UNL1       -0.0490
     28 C         141.0196  139.5216  166.1888 C.ar    1  UNL1        0.0021
     29 C         140.5413  138.7567  164.9904 C.ar    1  UNL1       -0.0249
     30 C         142.2310  139.0554  164.5842 C.3     1  UNL1        0.0761
@<TRIPOS>BOND
     1    10    11    1
     2    11    12   ar
     3    12    13   ar
     4    13    14   ar
     5    14    15   ar
     6    15     4    1
     7     4     5   ar
     8     5     6   ar
     9     6     7   ar
    10     7     3    1
    11     3     2    1
    12     2     1    1
    13     1    16    1
    14    16    17    1
    15    17    18    1
    16    18    19    1
    17    19    20    1
    18    20    21    1
    19    21    22    1
    20    22    23    1
    21    23    24   ar
    22    24    25   ar
    23    25    26   ar
    24    26    27    1
    25    26    28   ar
    26    28    29   ar
    27    20    30    1
    28     7     8   ar
    29     8     9    1
    30    15    11   ar
    31     8     4   ar
    32    30    17    1
    33    29    20    1
    34    29    23   ar
@<TRIPOS>MOLECULE
*****
 30 34 0 0 0
SMALL
GASTEIGER

@<TRIPOS>ATOM
      1 C         141.8980  138.8137  161.2453 C.3     1  UNL1        0.0294
      2 C         140.8374  137.9723  161.8913 C.3     1  UNL1        0.0666
      3 S         140.9956  137.5295  163.3156 S.3     1  UNL1       -0.0756
      4 C         139.5886  139.3941  166.4155 C.ar    1  UNL1        0.2029
      5 N         138.3222  138.9988  165.7155 N.ar    1  UNL1       -0.1250
      6 N         138.6952  138.2522  164.4691 N.ar    1  UNL1       -0.1220
      7 C         140.1920  138.1861  164.3988 C.ar    1  UNL1        0.1933
      8 N         140.7443  138.8918  165.6017 N.ar    1  UNL1       -0.2860
      9 C         142.1970  139.0648  165.9327 C.3     1  UNL1        0.1341
     10 C         140.7448  142.4254  166.7680 C.3     1  UNL1        0.0556
     11 C         140.2143  141.5509  167.8652 C.ar    1  UNL1        0.1001
     12 N         140.1220  141.9163  169.3171 N.ar    1  UNL1       -0.2085
     13 C         139.5336  140.7488  170.0525 C.ar    1  UNL1        0.2849
     14 O         139.2622  139.6618  169.0550 O.2     1  UNL1       -0.4283
     15 C         139.6829  140.1576  167.7032 C.ar    1  UNL1        0.1964
     16 C         143.1008  139.2401  162.0336 C.3     1  UNL1        0.0730
     17 N         143.2610  140.6751  162.4401 N.3     1  UNL1       -0.2724
     18 C         144.5588  141.4171  162.5627 C.3     1  UNL1        0.0725
     19 C         144.2513  142.8206  162.9937 C.3     1  UNL1        0.0227
     20 C         142.7635  142.9459  163.1376 C.3     1  UNL1        0.0350
     21 C         143.3755  144.2719  163.4797 C.3     1  UNL1        0.0101
     22 C         142.2660  145.2167  163.8350 C.3     1  UNL1        0.0264
     23 C         140.9682  144.4746  163.7124 C.ar    1  UNL1       -0.0261
     24 C         139.5462  144.8955  163.9376 C.ar    1  UNL1       -0.0041
     25 C         138.4317  143.9130  163.7318 C.ar    1  UNL1        0.0064
     26 C         138.7391  142.5096  163.3007 C.ar    1  UNL1        0.0342
     27 BR        137.6245  141.5270  163.0948 Br      1  UNL1       -0.0490
     28 C         140.1611  142.0887  163.0755 C.ar    1  UNL1        0.0021
     29 C         141.2756  143.0712  163.2814 C.ar    1  UNL1       -0.0249
     30 C         142.1514  141.6199  162.7954 C.3     1  UNL1        0.0761
@<TRIPOS>BOND
     1    10    11    1
     2    11    12   ar
     3    12    13   ar
     4    13    14   ar
     5    14    15   ar
     6    15     4    1
     7     4     5   ar
     8     5     6   ar
     9     6     7   ar
    10     7     3    1
    11     3     2    1
    12     2     1    1
    13     1    16    1
    14    16    17    1
    15    17    18    1
    16    18    19    1
    17    19    20    1
    18    20    21    1
    19    21    22    1
    20    22    23    1
    21    23    24   ar
    22    24    25   ar
    23    25    26   ar
    24    26    27    1
    25    26    28   ar
    26    28    29   ar
    27    20    30    1
    28     7     8   ar
    29     8     9    1
    30    15    11   ar
    31     8     4   ar
    32    30    17    1
    33    29    20    1
    34    29    23   ar
@<TRIPOS>MOLECULE
*****
 30 34 0 0 0
SMALL
GASTEIGER

@<TRIPOS>ATOM
      1 C         139.7772  137.7309  162.6518 C.3     1  UNL1        0.0294
      2 C         139.0692  138.0604  161.3711 C.3     1  UNL1        0.0666
      3 S         137.8943  138.9928  161.3821 S.3     1  UNL1       -0.0756
      4 C         138.6569  142.6505  162.4337 C.ar    1  UNL1        0.2029
      5 N         137.7564  142.2098  163.5495 N.ar    1  UNL1       -0.1250
      6 N         137.3612  140.7860  163.2914 N.ar    1  UNL1       -0.1220
      7 C         138.0174  140.3467  162.0160 C.ar    1  UNL1        0.1933
      8 N         138.8182  141.4990  161.4860 N.ar    1  UNL1       -0.2860
      9 C         139.6366  141.4997  160.2289 C.3     1  UNL1        0.1341
     10 C         140.6461  144.0791  164.5905 C.3     1  UNL1        0.0556
     11 C         140.2000  144.6615  163.2821 C.ar    1  UNL1        0.1001
     12 N         140.5899  146.0027  162.7354 N.ar    1  UNL1       -0.2085
     13 C         139.9166  146.1751  161.4062 C.ar    1  UNL1        0.2849
     14 O         139.1105  144.9403  161.1314 O.2     1  UNL1       -0.4283
     15 C         139.2857  144.0048  162.2908 C.ar    1  UNL1        0.1964
     16 C         138.9876  137.4780  163.9018 C.3     1  UNL1        0.0730
     17 N         139.1582  138.3760  165.0912 N.3     1  UNL1       -0.2724
     18 C         138.2318  138.4667  166.2675 C.3     1  UNL1        0.0725
     19 C         138.7863  139.4876  167.2164 C.3     1  UNL1        0.0227
     20 C         140.0552  140.0278  166.6265 C.3     1  UNL1        0.0350
     21 C         139.8254  140.7149  167.9399 C.3     1  UNL1        0.0101
     22 C         140.9523  141.6797  168.1618 C.3     1  UNL1        0.0264
     23 C         141.8785  141.5889  166.9855 C.ar    1  UNL1       -0.0261
     24 C         143.1552  142.3040  166.6558 C.ar    1  UNL1       -0.0041
     25 C         143.8775  141.9982  165.3773 C.ar    1  UNL1        0.0064
     26 C         143.3232  140.9773  164.4284 C.ar    1  UNL1        0.0342
     27 BR        144.0455  140.6714  163.1498 Br      1  UNL1       -0.0490
     28 C         142.0465  140.2622  164.7581 C.ar    1  UNL1        0.0021
     29 C         141.3242  140.5681  166.0367 C.ar    1  UNL1       -0.0249
     30 C         140.2851  139.3408  165.3131 C.3     1  UNL1        0.0761
@<TRIPOS>BOND
     1    10    11    1
     2    11    12   ar
     3    12    13   ar
     4    13    14   ar
     5    14    15   ar
     6    15     4    1
     7     4     5   ar
     8     5     6   ar
     9     6     7   ar
    10     7     3    1
    11     3     2    1
    12     2     1    1
    13     1    16    1
    14    16    17    1
    15    17    18    1
    16    18    19    1
    17    19    20    1
    18    20    21    1
    19    21    22    1
    20    22    23    1
    21    23    24   ar
    22    24    25   ar
    23    25    26   ar
    24    26    27    1
    25    26    28   ar
    26    28    29   ar
    27    20    30    1
    28     7     8   ar
    29     8     9    1
    30    15    11   ar
    31     8     4   ar
    32    30    17    1
    33    29    20    1
    34    29    23   ar
@<TRIPOS>MOLECULE
*****
 30 34 0 0 0
SMALL
GASTEIGER

@<TRIPOS>ATOM
      1 C         139.5071  144.2826  164.4161 C.3     1  UNL1        0.0294
      2 C         138.2848  144.3663  163.5506 C.3     1  UNL1        0.0666
      3 S         137.9681  143.2578  162.5910 S.3     1  UNL1       -0.0756
      4 C         140.3813  140.2240  162.3935 C.ar    1  UNL1        0.2029
      5 N         139.2867  139.6682  163.2555 N.ar    1  UNL1       -0.1250
      6 N         138.2495  140.7370  163.4344 N.ar    1  UNL1       -0.1220
      7 C         138.7031  141.9534  162.6830 C.ar    1  UNL1        0.1933
      8 N         140.0205  141.6364  162.0396 N.ar    1  UNL1       -0.2860
      9 C         140.8343  142.5682  161.1914 C.3     1  UNL1        0.1341
     10 C         141.3095  137.2593  163.3925 C.3     1  UNL1        0.0556
     11 C         142.0458  138.1327  162.4204 C.ar    1  UNL1        0.1001
     12 N         143.3381  137.7969  161.7368 N.ar    1  UNL1       -0.2085
     13 C         143.7100  138.9520  160.8552 C.ar    1  UNL1        0.2849
     14 O         142.6477  140.0018  160.9938 O.2     1  UNL1       -0.4283
     15 C         141.6192  139.4955  161.9612 C.ar    1  UNL1        0.1964
     16 C         139.4321  143.6157  165.7576 C.3     1  UNL1        0.0730
     17 N         140.1807  142.3393  166.0035 N.3     1  UNL1       -0.2724
     18 C         139.7538  141.2288  166.9171 C.3     1  UNL1        0.0725
     19 C         140.7968  140.1525  166.8571 C.3     1  UNL1        0.0227
     20 C         141.8683  140.5977  165.9065 C.3     1  UNL1        0.0350
     21 C         142.2491  139.2462  166.4340 C.3     1  UNL1        0.0101
     22 C         143.5559  138.8561  165.8094 C.3     1  UNL1        0.0264
     23 C         143.9827  139.9666  164.8959 C.ar    1  UNL1       -0.0261
     24 C         145.1864  140.1367  164.0171 C.ar    1  UNL1       -0.0041
     25 C         145.3471  141.3832  163.1983 C.ar    1  UNL1        0.0064
     26 C         144.3041  142.4596  163.2583 C.ar    1  UNL1        0.0342
     27 BR        144.4648  143.7061  162.4394 Br      1  UNL1       -0.0490
     28 C         143.1004  142.2894  164.1370 C.ar    1  UNL1        0.0021
     29 C         142.9398  141.0429  164.9558 C.ar    1  UNL1       -0.0249
     30 C         141.4875  141.9492  165.3789 C.3     1  UNL1        0.0761
@<TRIPOS>BOND
     1    10    11    1
     2    11    12   ar
     3    12    13   ar
     4    13    14   ar
     5    14    15   ar
     6    15     4    1
     7     4     5   ar
     8     5     6   ar
     9     6     7   ar
    10     7     3    1
    11     3     2    1
    12     2     1    1
    13     1    16    1
    14    16    17    1
    15    17    18    1
    16    18    19    1
    17    19    20    1
    18    20    21    1
    19    21    22    1
    20    22    23    1
    21    23    24   ar
    22    24    25   ar
    23    25    26   ar
    24    26    27    1
    25    26    28   ar
    26    28    29   ar
    27    20    30    1
    28     7     8   ar
    29     8     9    1
    30    15    11   ar
    31     8     4   ar
    32    30    17    1
    33    29    20    1
    34    29    23   ar
