@<TRIPOS>MOLECULE
*****
 38 40 0 0 0
SMALL
GASTEIGER

@<TRIPOS>ATOM
      1 C         138.9921  142.5753  161.7658 C.2     1  UNL1        0.2485
      2 O         137.9441  143.6471  161.7135 O.2     1  UNL1       -0.2726
      3 N         140.0238  142.4817  160.6810 N.am    1  UNL1       -0.2823
      4 H         140.7117  141.7782  160.7153 H       1  UNL1        0.1549
      5 C         140.1884  141.8584  167.2148 C.ar    1  UNL1        0.1054
      6 C         140.3377  143.1183  166.4145 C.ar    1  UNL1        0.0181
      7 C         139.9685  143.1316  164.9607 C.ar    1  UNL1       -0.0011
      8 C         139.4499  141.8850  164.3072 C.ar    1  UNL1        0.0022
      9 C         139.3005  140.6252  165.1075 C.ar    1  UNL1       -0.0030
     10 C         139.6698  140.6119  166.5612 C.ar    1  UNL1        0.0155
     11 C         138.7669  139.5586  164.1977 C.3     1  UNL1        0.1206
     12 N         138.5864  140.1593  162.8351 N.am    1  UNL1       -0.2655
     13 C         138.0737  139.4473  161.6184 C.2     1  UNL1        0.2269
     14 C         137.6881  138.0002  161.7031 C.3     1  UNL1        0.0949
     15 O         137.9468  140.1823  160.3171 O.2     1  UNL1       -0.2748
     16 C         139.0085  141.5971  162.9028 C.3     1  UNL1        0.1750
     17 S         140.5577  141.8451  168.6685 S.O2    1  UNL1        0.0086
     18 O         140.3456  143.3285  168.7360 O.2     1  UNL1       -0.1686
     19 O         140.7697  140.3617  168.6011 O.2     1  UNL1       -0.1686
     20 C         140.6873  140.6012  170.9458 C.3     1  UNL1        0.0276
     21 C         140.9270  141.8318  170.1223 C.3     1  UNL1        0.1560
     22 C         140.0074  143.4599  159.5439 C.ar    1  UNL1        0.0503
     23 C         139.2867  143.1205  158.2730 C.ar    1  UNL1        0.0144
     24 C         139.2703  144.0987  157.1359 C.ar    1  UNL1       -0.0002
     25 C         139.9746  145.4163  157.2698 C.ar    1  UNL1        0.0182
     26 C         140.6954  145.7556  158.5408 C.ar    1  UNL1       -0.0002
     27 C         140.7118  144.7774  159.6778 C.ar    1  UNL1        0.0144
     28 C         139.9583  146.3944  156.1327 C.3     1  UNL1        0.2827
     29 O         139.3386  147.4255  157.0287 O.3     1  UNL1       -0.3692
     30 H         139.2150  147.0514  157.9151 H       1  UNL1        0.2112
     31 C         139.9419  147.3726  154.9957 C.3     1  UNL1        0.4311
     32 F         139.9255  148.3508  153.8587 F       1  UNL1       -0.1669
     33 F         138.4421  147.3472  154.9955 F       1  UNL1       -0.1669
     34 F         140.8197  147.4579  154.9140 F       1  UNL1       -0.1669
     35 C         140.5780  145.3633  155.2368 C.3     1  UNL1        0.4311
     36 F         141.1977  144.3323  154.3408 F       1  UNL1       -0.1669
     37 F         139.8593  145.2016  154.7450 F       1  UNL1       -0.1669
     38 F         141.9916  145.2587  155.7273 F       1  UNL1       -0.1669
@<TRIPOS>BOND
     1    20    21    1
     2    21    17    1
     3    17    18    2
     4    17    19    2
     5    17     5    1
     6     5     6   ar
     7     6     7   ar
     8     7     8   ar
     9     8     9   ar
    10     9    10   ar
    11     9    11    1
    12    11    12    1
    13    12    13   am
    14    13    14    1
    15    13    15    2
    16    12    16    1
    17    16     1    1
    18     1     2    2
    19     1     3   am
    20     3    22    1
    21    22    23   ar
    22    23    24   ar
    23    24    25   ar
    24    25    28    1
    25    28    29    1
    26    28    31    1
    27    31    32    1
    28    31    33    1
    29    31    34    1
    30    28    35    1
    31    35    36    1
    32    35    37    1
    33    35    38    1
    34    25    26   ar
    35    26    27   ar
    36    10     5   ar
    37    27    22   ar
    38    16     8    1
    39     3     4    1
    40    29    30    1
@<TRIPOS>MOLECULE
*****
 38 40 0 0 0
SMALL
GASTEIGER

@<TRIPOS>ATOM
      1 C         142.5318  138.0139  158.1915 C.2     1  UNL1        0.2485
      2 O         143.6975  138.9076  157.8878 O.2     1  UNL1       -0.2726
      3 N         141.8897  138.0532  159.5465 N.am    1  UNL1       -0.2823
      4 H         141.1245  137.4666  159.7459 H       1  UNL1        0.1549
      5 C         143.2394  133.0289  155.6843 C.ar    1  UNL1        0.1054
      6 C         144.0708  133.6118  156.7884 C.ar    1  UNL1        0.0181
      7 C         143.7378  134.9648  157.3439 C.ar    1  UNL1       -0.0011
      8 C         142.5734  135.7349  156.7953 C.ar    1  UNL1        0.0022
      9 C         141.7420  135.1521  155.6912 C.ar    1  UNL1       -0.0030
     10 C         142.0750  133.7991  155.1358 C.ar    1  UNL1        0.0155
     11 C         140.6628  136.1378  155.3538 C.3     1  UNL1        0.1206
     12 N         140.8273  137.3298  156.2493 N.am    1  UNL1       -0.2655
     13 C         139.9628  138.5556  156.2533 C.2     1  UNL1        0.2269
     14 C         138.8104  138.6638  155.2992 C.3     1  UNL1        0.0949
     15 O         140.2506  139.6733  157.2115 O.2     1  UNL1       -0.2748
     16 C         142.0081  137.0808  157.1402 C.3     1  UNL1        0.1750
     17 S         143.5723  131.6760  155.1288 S.O2    1  UNL1        0.0086
     18 O         144.9602  131.7885  155.6867 O.2     1  UNL1       -0.1686
     19 O         142.1845  131.5634  154.5710 O.2     1  UNL1       -0.1686
     20 C         144.8985  129.4468  155.2775 C.3     1  UNL1        0.0276
     21 C         143.9053  130.3230  154.5734 C.3     1  UNL1        0.1560
     22 C         142.4133  138.9863  160.5978 C.ar    1  UNL1        0.0503
     23 C         143.5611  138.5675  161.4680 C.ar    1  UNL1        0.0144
     24 C         144.0847  139.5006  162.5192 C.ar    1  UNL1       -0.0002
     25 C         143.4606  140.8525  162.7004 C.ar    1  UNL1        0.0182
     26 C         142.3128  141.2712  161.8303 C.ar    1  UNL1       -0.0002
     27 C         141.7892  140.3382  160.7790 C.ar    1  UNL1        0.0144
     28 C         143.9842  141.7855  163.7517 C.3     1  UNL1        0.2827
     29 O         143.5759  140.8130  164.8182 O.3     1  UNL1       -0.3692
     30 H         143.1687  140.0345  164.4072 H       1  UNL1        0.2112
     31 C         144.5078  142.7186  164.8029 C.3     1  UNL1        0.4311
     32 F         145.0315  143.6517  165.8542 F       1  UNL1       -0.1669
     33 F         143.1044  143.0025  165.2500 F       1  UNL1       -0.1669
     34 F         145.3681  142.6194  164.6166 F       1  UNL1       -0.1669
     35 C         144.3925  142.7580  162.6851 C.3     1  UNL1        0.4311
     36 F         144.8008  143.7306  161.6186 F       1  UNL1       -0.1669
     37 F         143.7800  143.3735  162.8600 F       1  UNL1       -0.1669
     38 F         145.5540  142.0904  162.0105 F       1  UNL1       -0.1669
@<TRIPOS>BOND
     1    20    21    1
     2    21    17    1
     3    17    18    2
     4    17    19    2
     5    17     5    1
     6     5     6   ar
     7     6     7   ar
     8     7     8   ar
     9     8     9   ar
    10     9    10   ar
    11     9    11    1
    12    11    12    1
    13    12    13   am
    14    13    14    1
    15    13    15    2
    16    12    16    1
    17    16     1    1
    18     1     2    2
    19     1     3   am
    20     3    22    1
    21    22    23   ar
    22    23    24   ar
    23    24    25   ar
    24    25    28    1
    25    28    29    1
    26    28    31    1
    27    31    32    1
    28    31    33    1
    29    31    34    1
    30    28    35    1
    31    35    36    1
    32    35    37    1
    33    35    38    1
    34    25    26   ar
    35    26    27   ar
    36    10     5   ar
    37    27    22   ar
    38    16     8    1
    39     3     4    1
    40    29    30    1
@<TRIPOS>MOLECULE
*****
 38 40 0 0 0
SMALL
GASTEIGER

@<TRIPOS>ATOM
      1 C         141.6978  139.0752  158.6567 C.2     1  UNL1        0.2485
      2 O         142.4117  138.1242  159.5709 O.2     1  UNL1       -0.2726
      3 N         140.5105  139.8450  159.1542 N.am    1  UNL1       -0.2823
      4 H         140.0419  140.4692  158.5542 H       1  UNL1        0.1549
      5 C         145.6879  141.3099  155.3823 C.ar    1  UNL1        0.1054
      6 C         145.6024  141.3790  156.8782 C.ar    1  UNL1        0.0181
      7 C         144.4607  140.7215  157.5953 C.ar    1  UNL1       -0.0011
      8 C         143.4045  139.9950  156.8165 C.ar    1  UNL1        0.0022
      9 C         143.4900  139.9259  155.3206 C.ar    1  UNL1       -0.0030
     10 C         144.6317  140.5834  154.6035 C.ar    1  UNL1        0.0155
     11 C         142.3095  139.1446  154.8244 C.3     1  UNL1        0.1206
     12 N         141.4945  138.7308  156.0137 N.am    1  UNL1       -0.2655
     13 C         140.2255  137.9318  155.9781 C.2     1  UNL1        0.2269
     14 C         139.6651  137.4724  154.6648 C.3     1  UNL1        0.0949
     15 O         139.5170  137.5921  157.2558 O.2     1  UNL1       -0.2748
     16 C         142.1712  139.2564  157.2449 C.3     1  UNL1        0.1750
     17 S         146.8296  141.9674  154.6651 S.O2    1  UNL1        0.0086
     18 O         147.2473  142.6346  155.9419 O.2     1  UNL1       -0.1686
     19 O         146.4118  141.3001  153.3883 O.2     1  UNL1       -0.1686
     20 C         147.8270  144.0270  153.4350 C.3     1  UNL1        0.0276
     21 C         147.9713  142.6249  153.9480 C.3     1  UNL1        0.1560
     22 C         140.0370  139.6638  160.5659 C.ar    1  UNL1        0.0503
     23 C         138.8301  138.8196  160.8497 C.ar    1  UNL1        0.0144
     24 C         138.3567  138.6383  162.2615 C.ar    1  UNL1       -0.0002
     25 C         139.0901  139.3013  163.3895 C.ar    1  UNL1        0.0182
     26 C         140.2971  140.1455  163.1057 C.ar    1  UNL1       -0.0002
     27 C         140.7705  140.3267  161.6939 C.ar    1  UNL1        0.0144
     28 C         138.6167  139.1201  164.8012 C.3     1  UNL1        0.2827
     29 O         137.7255  140.3178  164.6561 O.3     1  UNL1       -0.3692
     30 H         137.8220  140.6864  163.7641 H       1  UNL1        0.2112
     31 C         138.1433  138.9388  166.2130 C.3     1  UNL1        0.4311
     32 F         137.6699  138.7576  167.6247 F       1  UNL1       -0.1669
     33 F         138.8011  140.2303  166.5993 F       1  UNL1       -0.1669
     34 F         137.7237  138.1688  166.0881 F       1  UNL1       -0.1669
     35 C         139.5080  137.9223  164.9463 C.3     1  UNL1        0.4311
     36 F         140.3993  136.7246  165.0915 F       1  UNL1       -0.1669
     37 F         139.0020  137.3554  164.4913 F       1  UNL1       -0.1669
     38 F         140.6676  138.4283  165.7521 F       1  UNL1       -0.1669
@<TRIPOS>BOND
     1    20    21    1
     2    21    17    1
     3    17    18    2
     4    17    19    2
     5    17     5    1
     6     5     6   ar
     7     6     7   ar
     8     7     8   ar
     9     8     9   ar
    10     9    10   ar
    11     9    11    1
    12    11    12    1
    13    12    13   am
    14    13    14    1
    15    13    15    2
    16    12    16    1
    17    16     1    1
    18     1     2    2
    19     1     3   am
    20     3    22    1
    21    22    23   ar
    22    23    24   ar
    23    24    25   ar
    24    25    28    1
    25    28    29    1
    26    28    31    1
    27    31    32    1
    28    31    33    1
    29    31    34    1
    30    28    35    1
    31    35    36    1
    32    35    37    1
    33    35    38    1
    34    25    26   ar
    35    26    27   ar
    36    10     5   ar
    37    27    22   ar
    38    16     8    1
    39     3     4    1
    40    29    30    1
@<TRIPOS>MOLECULE
*****
 38 40 0 0 0
SMALL
GASTEIGER

@<TRIPOS>ATOM
      1 C         142.4899  137.8824  157.9174 C.2     1  UNL1        0.2485
      2 O         143.6656  138.7545  157.5904 O.2     1  UNL1       -0.2726
      3 N         141.8611  137.9504  159.2776 N.am    1  UNL1       -0.2823
      4 H         141.0894  137.3781  159.4923 H       1  UNL1        0.1549
      5 C         143.1718  132.9031  155.3920 C.ar    1  UNL1        0.1054
      6 C         144.0321  133.4965  156.4680 C.ar    1  UNL1        0.0181
      7 C         143.7021  134.8462  157.0331 C.ar    1  UNL1       -0.0011
      8 C         142.5118  135.6026  156.5222 C.ar    1  UNL1        0.0022
      9 C         141.6515  135.0092  155.4463 C.ar    1  UNL1       -0.0030
     10 C         141.9815  133.6595  154.8812 C.ar    1  UNL1        0.0155
     11 C         140.5508  135.9823  155.1435 C.3     1  UNL1        0.1206
     12 N         140.7309  137.1770  156.0324 N.am    1  UNL1       -0.2655
     13 C         139.8531  138.3930  156.0637 C.2     1  UNL1        0.2269
     14 C         138.6691  138.4871  155.1476 C.3     1  UNL1        0.0949
     15 O         140.1593  139.5148  157.0112 O.2     1  UNL1       -0.2748
     16 C         141.9429  136.9423  156.8845 C.3     1  UNL1        0.1750
     17 S         143.5018  131.5534  154.8269 S.O2    1  UNL1        0.0086
     18 O         142.1666  131.5126  154.1445 O.2     1  UNL1       -0.1686
     19 O         144.8370  131.5941  155.5093 O.2     1  UNL1       -0.1686
     20 C         144.8684  129.3460  154.9249 C.3     1  UNL1        0.0276
     21 C         143.8318  130.2037  154.2618 C.3     1  UNL1        0.1560
     22 C         142.4081  138.8905  160.3106 C.ar    1  UNL1        0.0503
     23 C         143.4820  138.4292  161.2507 C.ar    1  UNL1        0.0144
     24 C         144.0291  139.3693  162.2837 C.ar    1  UNL1       -0.0002
     25 C         143.5022  140.7706  162.3766 C.ar    1  UNL1        0.0182
     26 C         142.4282  141.2319  161.4365 C.ar    1  UNL1       -0.0002
     27 C         141.8812  140.2918  160.4035 C.ar    1  UNL1        0.0144
     28 C         144.0492  141.7107  163.4096 C.3     1  UNL1        0.2827
     29 O         144.8999  142.3663  162.3625 O.3     1  UNL1       -0.3692
     30 H         144.7497  141.9345  161.5070 H       1  UNL1        0.2112
     31 C         144.5962  142.6507  164.4426 C.3     1  UNL1        0.4311
     32 F         145.1432  143.5908  165.4755 F       1  UNL1       -0.1669
     33 F         145.9630  142.0622  164.2544 F       1  UNL1       -0.1669
     34 F         143.8344  143.0633  164.6272 F       1  UNL1       -0.1669
     35 C         143.1985  141.0550  164.4567 C.3     1  UNL1        0.4311
     36 F         142.3478  140.3994  165.5038 F       1  UNL1       -0.1669
     37 F         142.4251  141.4028  164.2009 F       1  UNL1       -0.1669
     38 F         144.1716  140.2425  165.2584 F       1  UNL1       -0.1669
@<TRIPOS>BOND
     1    20    21    1
     2    21    17    1
     3    17    18    2
     4    17    19    2
     5    17     5    1
     6     5     6   ar
     7     6     7   ar
     8     7     8   ar
     9     8     9   ar
    10     9    10   ar
    11     9    11    1
    12    11    12    1
    13    12    13   am
    14    13    14    1
    15    13    15    2
    16    12    16    1
    17    16     1    1
    18     1     2    2
    19     1     3   am
    20     3    22    1
    21    22    23   ar
    22    23    24   ar
    23    24    25   ar
    24    25    28    1
    25    28    29    1
    26    28    31    1
    27    31    32    1
    28    31    33    1
    29    31    34    1
    30    28    35    1
    31    35    36    1
    32    35    37    1
    33    35    38    1
    34    25    26   ar
    35    26    27   ar
    36    10     5   ar
    37    27    22   ar
    38    16     8    1
    39     3     4    1
    40    29    30    1
@<TRIPOS>MOLECULE
*****
 38 40 0 0 0
SMALL
GASTEIGER

@<TRIPOS>ATOM
      1 C         142.5378  138.9720  158.1844 C.2     1  UNL1        0.2485
      2 O         142.7509  137.8007  159.0969 O.2     1  UNL1       -0.2726
      3 N         142.3502  138.7516  156.7126 N.am    1  UNL1       -0.2823
      4 H         142.2104  139.5203  156.1137 H       1  UNL1        0.1549
      5 C         139.6984  142.5882  161.4242 C.ar    1  UNL1        0.1054
      6 C         139.3252  141.1696  161.1111 C.ar    1  UNL1        0.0181
      7 C         140.2046  140.3416  160.2217 C.ar    1  UNL1       -0.0011
      8 C         141.4571  140.9322  159.6453 C.ar    1  UNL1        0.0022
      9 C         141.8303  142.3509  159.9584 C.ar    1  UNL1       -0.0030
     10 C         140.9509  143.1789  160.8478 C.ar    1  UNL1        0.0155
     11 C         143.1163  142.6591  159.2503 C.3     1  UNL1        0.1206
     12 N         143.5378  141.4308  158.4995 N.am    1  UNL1       -0.2655
     13 C         144.7687  141.2937  157.6532 C.2     1  UNL1        0.2269
     14 C         145.7073  142.4539  157.5012 C.3     1  UNL1        0.0949
     15 O         145.0609  139.9966  156.9590 O.2     1  UNL1       -0.2748
     16 C         142.5124  140.3636  158.7437 C.3     1  UNL1        0.1750
     17 S         138.8190  143.4162  162.3137 S.O2    1  UNL1        0.0086
     18 O         139.9960  143.7236  163.1913 O.2     1  UNL1       -0.1686
     19 O         137.6420  143.1089  161.4361 O.2     1  UNL1       -0.1686
     20 C         138.1177  144.1931  164.6916 C.3     1  UNL1        0.0276
     21 C         137.9397  144.2443  163.2031 C.3     1  UNL1        0.1560
     22 C         142.3756  137.3600  156.1533 C.ar    1  UNL1        0.0503
     23 C         141.0898  136.6541  155.8398 C.ar    1  UNL1        0.0144
     24 C         141.1152  135.2625  155.2805 C.ar    1  UNL1       -0.0002
     25 C         142.4264  134.5767  155.0348 C.ar    1  UNL1        0.0182
     26 C         143.7122  135.2827  155.3483 C.ar    1  UNL1       -0.0002
     27 C         143.6868  136.6742  155.9076 C.ar    1  UNL1        0.0144
     28 C         142.4518  133.1851  154.4755 C.3     1  UNL1        0.2827
     29 O         142.2646  133.7372  153.0934 O.3     1  UNL1       -0.3692
     30 H         142.2088  134.7046  153.1365 H       1  UNL1        0.2112
     31 C         142.4772  131.7936  153.9162 C.3     1  UNL1        0.4311
     32 F         142.5027  130.4020  153.3570 F       1  UNL1       -0.1669
     33 F         140.9790  131.7952  153.8439 F       1  UNL1       -0.1669
     34 F         143.3572  131.6924  153.9184 F       1  UNL1       -0.1669
     35 C         142.6390  132.6331  155.8576 C.3     1  UNL1        0.4311
     36 F         142.8262  132.0811  157.2397 F       1  UNL1       -0.1669
     37 F         141.7816  132.5993  156.0775 F       1  UNL1       -0.1669
     38 F         144.1260  132.4896  155.9928 F       1  UNL1       -0.1669
@<TRIPOS>BOND
     1    20    21    1
     2    21    17    1
     3    17    18    2
     4    17    19    2
     5    17     5    1
     6     5     6   ar
     7     6     7   ar
     8     7     8   ar
     9     8     9   ar
    10     9    10   ar
    11     9    11    1
    12    11    12    1
    13    12    13   am
    14    13    14    1
    15    13    15    2
    16    12    16    1
    17    16     1    1
    18     1     2    2
    19     1     3   am
    20     3    22    1
    21    22    23   ar
    22    23    24   ar
    23    24    25   ar
    24    25    28    1
    25    28    29    1
    26    28    31    1
    27    31    32    1
    28    31    33    1
    29    31    34    1
    30    28    35    1
    31    35    36    1
    32    35    37    1
    33    35    38    1
    34    25    26   ar
    35    26    27   ar
    36    10     5   ar
    37    27    22   ar
    38    16     8    1
    39     3     4    1
    40    29    30    1
@<TRIPOS>MOLECULE
*****
 38 40 0 0 0
SMALL
GASTEIGER

@<TRIPOS>ATOM
      1 C         141.1334  141.0679  162.0625 C.2     1  UNL1        0.2485
      2 O         140.0605  140.2130  162.6690 O.2     1  UNL1       -0.2726
      3 N         142.0387  141.8743  162.9458 N.am    1  UNL1       -0.2823
      4 H         142.7429  142.4354  162.5477 H       1  UNL1        0.1549
      5 C         142.7244  138.1811  157.5049 C.ar    1  UNL1        0.1054
      6 C         142.7197  137.6981  158.9250 C.ar    1  UNL1        0.0181
      7 C         142.2599  138.6081  160.0252 C.ar    1  UNL1       -0.0011
      8 C         141.8049  140.0011  159.7054 C.ar    1  UNL1        0.0022
      9 C         141.8096  140.4842  158.2853 C.ar    1  UNL1       -0.0030
     10 C         142.2694  139.5742  157.1851 C.ar    1  UNL1        0.0155
     11 C         141.3087  141.8981  158.2749 C.3     1  UNL1        0.1206
     12 N         140.9945  142.2889  159.6886 N.am    1  UNL1       -0.2655
     13 C         140.4663  143.6186  160.1392 C.2     1  UNL1        0.2269
     14 C         140.2063  144.7017  159.1347 C.3     1  UNL1        0.0949
     15 O         140.1981  143.8650  161.5943 O.2     1  UNL1       -0.2748
     16 C         141.3011  141.1165  160.5727 C.3     1  UNL1        0.1750
     17 S         143.1842  137.2712  156.4047 S.O2    1  UNL1        0.0086
     18 O         144.2532  138.2568  156.0362 O.2     1  UNL1       -0.1686
     19 O         142.1152  136.2856  156.7731 O.2     1  UNL1       -0.1686
     20 C         143.5749  134.8735  155.4835 C.3     1  UNL1        0.0276
     21 C         143.6440  136.3612  155.3044 C.3     1  UNL1        0.1560
     22 C         141.8710  141.8257  164.4356 C.ar    1  UNL1        0.0503
     23 C         142.6165  140.8035  165.2413 C.ar    1  UNL1        0.0144
     24 C         142.4488  140.7550  166.7311 C.ar    1  UNL1       -0.0002
     25 C         141.5356  141.7286  167.4153 C.ar    1  UNL1        0.0182
     26 C         140.7900  142.7508  166.6095 C.ar    1  UNL1       -0.0002
     27 C         140.9577  142.7994  165.1197 C.ar    1  UNL1        0.0144
     28 C         141.3679  141.6800  168.9051 C.3     1  UNL1        0.2827
     29 O         139.9392  141.2579  168.7305 O.3     1  UNL1       -0.3692
     30 H         139.7334  141.1965  167.7845 H       1  UNL1        0.2112
     31 C         141.2002  141.6315  170.3948 C.3     1  UNL1        0.4311
     32 F         141.0325  141.5830  171.8846 F       1  UNL1       -0.1669
     33 F         140.9928  140.1477  170.3231 F       1  UNL1       -0.1669
     34 F         141.3097  142.4977  170.5441 F       1  UNL1       -0.1669
     35 C         142.7966  142.1022  169.0796 C.3     1  UNL1        0.4311
     36 F         144.2254  142.5244  169.2542 F       1  UNL1       -0.1669
     37 F         142.7044  142.9265  168.7689 F       1  UNL1       -0.1669
     38 F         143.4653  140.8901  169.6571 F       1  UNL1       -0.1669
@<TRIPOS>BOND
     1    20    21    1
     2    21    17    1
     3    17    18    2
     4    17    19    2
     5    17     5    1
     6     5     6   ar
     7     6     7   ar
     8     7     8   ar
     9     8     9   ar
    10     9    10   ar
    11     9    11    1
    12    11    12    1
    13    12    13   am
    14    13    14    1
    15    13    15    2
    16    12    16    1
    17    16     1    1
    18     1     2    2
    19     1     3   am
    20     3    22    1
    21    22    23   ar
    22    23    24   ar
    23    24    25   ar
    24    25    28    1
    25    28    29    1
    26    28    31    1
    27    31    32    1
    28    31    33    1
    29    31    34    1
    30    28    35    1
    31    35    36    1
    32    35    37    1
    33    35    38    1
    34    25    26   ar
    35    26    27   ar
    36    10     5   ar
    37    27    22   ar
    38    16     8    1
    39     3     4    1
    40    29    30    1
@<TRIPOS>MOLECULE
*****
 38 40 0 0 0
SMALL
GASTEIGER

@<TRIPOS>ATOM
      1 C         141.4155  142.6716  162.7137 C.2     1  UNL1        0.2485
      2 O         140.7036  141.3713  162.9420 O.2     1  UNL1       -0.2726
      3 N         141.9151  143.4683  163.8823 N.am    1  UNL1       -0.2823
      4 H         142.3824  144.3218  163.7325 H       1  UNL1        0.1549
      5 C         143.9744  141.6990  157.8002 C.ar    1  UNL1        0.1054
      6 C         144.0468  140.8571  159.0395 C.ar    1  UNL1        0.0181
      7 C         143.2950  141.2684  160.2706 C.ar    1  UNL1       -0.0011
      8 C         142.4707  142.5216  160.2624 C.ar    1  UNL1        0.0022
      9 C         142.3983  143.3634  159.0231 C.ar    1  UNL1       -0.0030
     10 C         143.1501  142.9521  157.7920 C.ar    1  UNL1        0.0155
     11 C         141.5104  144.5376  159.3115 C.3     1  UNL1        0.1206
     12 N         141.0342  144.4214  160.7292 N.am    1  UNL1       -0.2655
     13 C         140.1242  145.3824  161.4352 C.2     1  UNL1        0.2269
     14 C         139.6065  146.5919  160.7150 C.3     1  UNL1        0.0949
     15 O         139.7320  145.1337  162.8615 O.2     1  UNL1       -0.2748
     16 C         141.6277  143.1754  161.3168 C.3     1  UNL1        0.1750
     17 S         144.7262  141.2877  156.5691 S.O2    1  UNL1        0.0086
     18 O         144.9239  139.9179  157.1474 O.2     1  UNL1       -0.1686
     19 O         144.5285  142.6575  155.9907 O.2     1  UNL1       -0.1686
     20 C         145.2598  139.5158  154.7455 C.3     1  UNL1        0.0276
     21 C         145.4780  140.8764  155.3380 C.3     1  UNL1        0.1560
     22 C         141.7029  142.9646  165.2791 C.ar    1  UNL1        0.0503
     23 C         140.3454  143.0549  165.9108 C.ar    1  UNL1        0.0144
     24 C         140.1331  142.5512  167.3077 C.ar    1  UNL1       -0.0002
     25 C         141.2783  141.9571  168.0729 C.ar    1  UNL1        0.0182
     26 C         142.6358  141.8668  167.4412 C.ar    1  UNL1       -0.0002
     27 C         142.8481  142.3705  166.0443 C.ar    1  UNL1        0.0144
     28 C         141.0661  141.4534  169.4697 C.3     1  UNL1        0.2827
     29 O         141.5581  140.0982  169.0558 O.3     1  UNL1       -0.3692
     30 H         141.7936  140.1132  168.1149 H       1  UNL1        0.2112
     31 C         140.8538  140.9496  170.8666 C.3     1  UNL1        0.4311
     32 F         140.6416  140.4459  172.2634 F       1  UNL1       -0.1669
     33 F         139.7229  140.0901  170.3848 F       1  UNL1       -0.1669
     34 F         141.5014  141.4171  171.2495 F       1  UNL1       -0.1669
     35 C         140.5740  142.8085  169.8837 C.3     1  UNL1        0.4311
     36 F         140.0820  144.1637  170.2976 F       1  UNL1       -0.1669
     37 F         139.7181  142.5939  169.9605 F       1  UNL1       -0.1669
     38 F         141.8133  143.6534  169.9060 F       1  UNL1       -0.1669
@<TRIPOS>BOND
     1    20    21    1
     2    21    17    1
     3    17    18    2
     4    17    19    2
     5    17     5    1
     6     5     6   ar
     7     6     7   ar
     8     7     8   ar
     9     8     9   ar
    10     9    10   ar
    11     9    11    1
    12    11    12    1
    13    12    13   am
    14    13    14    1
    15    13    15    2
    16    12    16    1
    17    16     1    1
    18     1     2    2
    19     1     3   am
    20     3    22    1
    21    22    23   ar
    22    23    24   ar
    23    24    25   ar
    24    25    28    1
    25    28    29    1
    26    28    31    1
    27    31    32    1
    28    31    33    1
    29    31    34    1
    30    28    35    1
    31    35    36    1
    32    35    37    1
    33    35    38    1
    34    25    26   ar
    35    26    27   ar
    36    10     5   ar
    37    27    22   ar
    38    16     8    1
    39     3     4    1
    40    29    30    1
@<TRIPOS>MOLECULE
*****
 38 40 0 0 0
SMALL
GASTEIGER

@<TRIPOS>ATOM
      1 C         142.2759  142.2531  161.8612 C.2     1  UNL1        0.2485
      2 O         143.3994  143.0589  162.4429 O.2     1  UNL1       -0.2726
      3 N         141.2975  141.5669  162.7678 N.am    1  UNL1       -0.2823
      4 H         140.5601  141.0380  162.3861 H       1  UNL1        0.1549
      5 C         141.1242  145.0225  157.1031 C.ar    1  UNL1        0.1054
      6 C         141.1607  145.5878  158.4920 C.ar    1  UNL1        0.0181
      7 C         141.4884  144.6991  159.6551 C.ar    1  UNL1       -0.0011
      8 C         141.7797  143.2451  159.4293 C.ar    1  UNL1        0.0022
      9 C         141.7432  142.6798  158.0404 C.ar    1  UNL1       -0.0030
     10 C         141.4155  143.5685  156.8773 C.ar    1  UNL1        0.0155
     11 C         142.0719  141.2187  158.1258 C.3     1  UNL1        0.1206
     12 N         142.3114  140.8810  159.5675 N.am    1  UNL1       -0.2655
     13 C         142.6688  139.5284  160.1087 C.2     1  UNL1        0.2269
     14 C         142.8159  138.3625  159.1764 C.3     1  UNL1        0.0949
     15 O         142.8791  139.3417  161.5821 O.2     1  UNL1       -0.2748
     16 C         142.1308  142.1334  160.3731 C.3     1  UNL1        0.1750
     17 S         140.7965  145.9112  155.9400 S.O2    1  UNL1        0.0086
     18 O         139.5746  146.4014  156.6588 O.2     1  UNL1       -0.1686
     19 O         142.0183  145.4209  155.2211 O.2     1  UNL1       -0.1686
     20 C         139.4283  147.8707  154.9210 C.3     1  UNL1        0.0276
     21 C         140.4687  146.7999  154.7769 C.3     1  UNL1        0.1560
     22 C         141.4426  141.6866  164.2560 C.ar    1  UNL1        0.0503
     23 C         140.5409  142.6053  165.0260 C.ar    1  UNL1        0.0144
     24 C         140.6860  142.7250  166.5141 C.ar    1  UNL1       -0.0002
     25 C         141.7328  141.9261  167.2323 C.ar    1  UNL1        0.0182
     26 C         142.6345  141.0074  166.4623 C.ar    1  UNL1       -0.0002
     27 C         142.4894  140.8877  164.9742 C.ar    1  UNL1        0.0144
     28 C         141.8779  142.0458  168.7205 C.3     1  UNL1        0.2827
     29 O         143.2358  142.6565  168.5389 O.3     1  UNL1       -0.3692
     30 H         143.4401  142.7152  167.5925 H       1  UNL1        0.2112
     31 C         142.0230  142.1655  170.2086 C.3     1  UNL1        0.4311
     32 F         142.1681  142.2851  171.6968 F       1  UNL1       -0.1669
     33 F         141.9814  143.6604  170.0924 F       1  UNL1       -0.1669
     34 F         142.0578  141.2979  170.3838 F       1  UNL1       -0.1669
     35 C         140.5200  141.4350  168.9020 C.3     1  UNL1        0.4311
     36 F         139.1620  140.8242  169.0835 F       1  UNL1       -0.1669
     37 F         140.1017  142.1743  169.1531 F       1  UNL1       -0.1669
     38 F         140.7219  139.9905  168.5519 F       1  UNL1       -0.1669
@<TRIPOS>BOND
     1    20    21    1
     2    21    17    1
     3    17    18    2
     4    17    19    2
     5    17     5    1
     6     5     6   ar
     7     6     7   ar
     8     7     8   ar
     9     8     9   ar
    10     9    10   ar
    11     9    11    1
    12    11    12    1
    13    12    13   am
    14    13    14    1
    15    13    15    2
    16    12    16    1
    17    16     1    1
    18     1     2    2
    19     1     3   am
    20     3    22    1
    21    22    23   ar
    22    23    24   ar
    23    24    25   ar
    24    25    28    1
    25    28    29    1
    26    28    31    1
    27    31    32    1
    28    31    33    1
    29    31    34    1
    30    28    35    1
    31    35    36    1
    32    35    37    1
    33    35    38    1
    34    25    26   ar
    35    26    27   ar
    36    10     5   ar
    37    27    22   ar
    38    16     8    1
    39     3     4    1
    40    29    30    1
@<TRIPOS>MOLECULE
*****
 38 40 0 0 0
SMALL
GASTEIGER

@<TRIPOS>ATOM
      1 C         142.1958  141.8588  162.0648 C.2     1  UNL1        0.2485
      2 O         143.5463  142.2079  162.6163 O.2     1  UNL1       -0.2726
      3 N         141.0434  141.6239  162.9959 N.am    1  UNL1       -0.2823
      4 H         140.1570  141.3948  162.6340 H       1  UNL1        0.1549
      5 C         142.3841  138.3900  157.6412 C.ar    1  UNL1        0.1054
      6 C         142.6874  138.0500  159.0703 C.ar    1  UNL1        0.0181
      7 C         142.5861  139.1064  160.1304 C.ar    1  UNL1       -0.0011
      8 C         142.1816  140.5029  159.7614 C.ar    1  UNL1        0.0022
      9 C         141.8783  140.8429  158.3323 C.ar    1  UNL1       -0.0030
     10 C         141.9796  139.7865  157.2722 C.ar    1  UNL1        0.0155
     11 C         141.5069  142.2949  158.2700 C.3     1  UNL1        0.1206
     12 N         141.5806  142.8522  159.6607 N.am    1  UNL1       -0.2655
     13 C         141.2886  144.2684  160.0597 C.2     1  UNL1        0.2269
     14 C         140.8799  145.2710  159.0215 C.3     1  UNL1        0.0949
     15 O         141.4052  144.6820  161.4968 O.2     1  UNL1       -0.2748
     16 C         141.9976  141.7446  160.5824 C.3     1  UNL1        0.1750
     17 S         142.4854  137.3336  156.5811 S.O2    1  UNL1        0.0086
     18 O         143.9320  137.6749  156.3793 O.2     1  UNL1       -0.1686
     19 O         141.0387  136.9924  156.7830 O.2     1  UNL1       -0.1686
     20 C         143.8710  135.5261  155.3310 C.3     1  UNL1        0.0276
     21 C         142.5866  136.2772  155.5211 C.3     1  UNL1        0.1560
     22 C         141.2416  141.7381  164.4783 C.ar    1  UNL1        0.0503
     23 C         140.4934  142.7792  165.2571 C.ar    1  UNL1        0.0144
     24 C         140.6916  142.8933  166.7395 C.ar    1  UNL1       -0.0002
     25 C         141.6379  141.9665  167.4433 C.ar    1  UNL1        0.0182
     26 C         142.3861  140.9254  166.6646 C.ar    1  UNL1       -0.0002
     27 C         142.1879  140.8112  165.1821 C.ar    1  UNL1        0.0144
     28 C         141.8361  142.0806  168.9257 C.3     1  UNL1        0.2827
     29 O         143.2043  142.6522  168.6988 O.3     1  UNL1       -0.3692
     30 H         143.3783  142.7058  167.7461 H       1  UNL1        0.2112
     31 C         142.0343  142.1948  170.4082 C.3     1  UNL1        0.4311
     32 F         142.2325  142.3090  171.8906 F       1  UNL1       -0.1669
     33 F         142.1084  143.6878  170.2833 F       1  UNL1       -0.1669
     34 F         142.0052  141.3280  170.5881 F       1  UNL1       -0.1669
     35 C         140.4680  141.5091  169.1527 C.3     1  UNL1        0.4311
     36 F         139.0999  140.9375  169.3796 F       1  UNL1       -0.1669
     37 F         140.6441  140.6900  168.8652 F       1  UNL1       -0.1669
     38 F         139.6823  142.6586  169.7105 F       1  UNL1       -0.1669
@<TRIPOS>BOND
     1    20    21    1
     2    21    17    1
     3    17    18    2
     4    17    19    2
     5    17     5    1
     6     5     6   ar
     7     6     7   ar
     8     7     8   ar
     9     8     9   ar
    10     9    10   ar
    11     9    11    1
    12    11    12    1
    13    12    13   am
    14    13    14    1
    15    13    15    2
    16    12    16    1
    17    16     1    1
    18     1     2    2
    19     1     3   am
    20     3    22    1
    21    22    23   ar
    22    23    24   ar
    23    24    25   ar
    24    25    28    1
    25    28    29    1
    26    28    31    1
    27    31    32    1
    28    31    33    1
    29    31    34    1
    30    28    35    1
    31    35    36    1
    32    35    37    1
    33    35    38    1
    34    25    26   ar
    35    26    27   ar
    36    10     5   ar
    37    27    22   ar
    38    16     8    1
    39     3     4    1
    40    29    30    1
