@<TRIPOS>MOLECULE
*****
 41 45 0 0 0
SMALL
GASTEIGER

@<TRIPOS>ATOM
      1 C         142.5344  144.1653  162.8669 C.2     1  UNL1        0.2251
      2 O         143.5987  145.1332  163.2919 O.2     1  UNL1       -0.2749
      3 N         142.0960  143.0755  163.7996 N.am    1  UNL1       -0.2794
      4 C         141.0318  142.1077  163.3746 C.3     1  UNL1        0.0954
      5 C         140.5933  141.0178  164.3073 C.3     1  UNL1        0.0441
      6 C         141.2191  140.8957  165.6651 C.3     1  UNL1        0.0856
      7 C         142.2834  141.8636  166.0901 C.3     1  UNL1        0.0441
      8 C         142.7218  142.9535  165.1574 C.3     1  UNL1        0.0954
      9 C         140.6569  144.5314  158.7937 C.3     1  UNL1        0.0542
     10 C         141.8123  143.5987  159.0059 C.3     1  UNL1        0.0162
     11 C         142.4382  143.4767  160.3636 C.3     1  UNL1        0.0104
     12 C         141.9086  144.2874  161.5092 C.3     1  UNL1        0.0768
     13 C         140.7531  145.2201  161.2970 C.3     1  UNL1        0.0095
     14 C         139.6864  146.2326  161.5919 C.3     1  UNL1        0.0005
     15 C         141.0085  145.4497  162.7571 C.3     1  UNL1        0.0005
     16 C         140.1273  145.3422  159.9393 C.3     1  UNL1        0.0162
     17 N         140.0311  144.6534  157.4360 N.3     1  UNL1       -0.2962
     18 H         140.0401  143.7209  157.0227 H       1  UNL1        0.1235
     19 C         140.6223  145.5836  156.4185 C.3     1  UNL1        0.0768
     20 C         141.8622  145.1889  155.6724 C.3     1  UNL1        0.0220
     21 C         138.6759  149.5584  155.6045 C.ar    1  UNL1        0.1387
     22 C         139.5540  148.9265  154.5655 C.ar    1  UNL1        0.0366
     23 C         140.2028  147.6016  154.8368 C.ar    1  UNL1        0.0001
     24 C         139.9735  146.9086  156.1472 C.ar    1  UNL1       -0.0078
     25 C         139.0954  147.5405  157.1862 C.ar    1  UNL1        0.0001
     26 C         138.4466  148.8654  156.9149 C.ar    1  UNL1        0.0366
     27 C         138.8736  152.1030  155.1187 C.3     1  UNL1        0.2525
     28 O         138.0272  150.8834  155.3332 O.3     1  UNL1       -0.4714
     29 N         140.2561  139.7470  165.7179 N.am    1  UNL1       -0.2455
     30 C         138.9625  139.8865  166.4645 C.3     1  UNL1        0.1008
     31 C         137.9994  138.7377  166.5174 C.3     1  UNL1        0.0691
     32 C         138.3299  137.4495  165.8237 C.3     1  UNL1        0.2119
     33 O         139.6234  137.3100  165.0772 O.3     1  UNL1       -0.4345
     34 C         140.5865  138.4587  165.0243 C.2     1  UNL1        0.4050
     35 O         141.8800  138.3192  164.2777 O.2     1  UNL1       -0.2262
     36 C         141.5105  140.3748  167.0411 C.ar    1  UNL1       -0.0059
     37 C         142.6156  139.3820  167.2488 C.ar    1  UNL1       -0.0027
     38 C         142.9069  138.8610  168.6250 C.ar    1  UNL1       -0.0003
     39 C         142.0933  139.3328  169.7934 C.ar    1  UNL1       -0.0000
     40 C         140.9882  140.3255  169.5857 C.ar    1  UNL1       -0.0003
     41 C         140.6967  140.8466  168.2096 C.ar    1  UNL1       -0.0027
@<TRIPOS>BOND
     1    27    28    1
     2    28    21    1
     3    21    22   ar
     4    22    23   ar
     5    23    24   ar
     6    24    19    1
     7    19    20    1
     8    19    17    1
     9     9    17    1
    10     9    10    1
    11    10    11    1
    12    11    12    1
    13    12     1    1
    14     1     2    2
    15     1     3   am
    16     3     4    1
    17     4     5    1
    18     5     6    1
    19     6    36    1
    20    36    37   ar
    21    37    38   ar
    22    38    39   ar
    23    39    40   ar
    24    40    41   ar
    25     6    29    1
    26    29    30    1
    27    30    31    1
    28    31    32    1
    29    32    33    1
    30    33    34    1
    31    34    35    2
    32     6     7    1
    33     7     8    1
    34    12    13    1
    35    13    14    1
    36    13    15    1
    37    13    16    1
    38    24    25   ar
    39    25    26   ar
    40    26    21   ar
    41    16     9    1
    42     8     3    1
    43    41    36   ar
    44    34    29   am
    45    17    18    1
@<TRIPOS>MOLECULE
*****
 41 45 0 0 0
SMALL
GASTEIGER

@<TRIPOS>ATOM
      1 C         142.6823  144.2039  163.1891 C.2     1  UNL1        0.2251
      2 O         143.7044  145.1804  163.6908 O.2     1  UNL1       -0.2749
      3 N         142.2072  143.0926  164.0775 N.am    1  UNL1       -0.2794
      4 C         141.1851  142.1161  163.5757 C.3     1  UNL1        0.0954
      5 C         140.7100  141.0048  164.4641 C.3     1  UNL1        0.0441
      6 C         141.2571  140.8699  165.8543 C.3     1  UNL1        0.0856
      7 C         142.2792  141.8464  166.3560 C.3     1  UNL1        0.0441
      8 C         142.7543  142.9577  165.4676 C.3     1  UNL1        0.0954
      9 C         141.0410  144.6084  159.0186 C.3     1  UNL1        0.0542
     10 C         142.2266  143.7262  159.2757 C.3     1  UNL1        0.0162
     11 C         142.7736  143.5913  160.6659 C.3     1  UNL1        0.0104
     12 C         142.1352  144.3387  161.7989 C.3     1  UNL1        0.0768
     13 C         140.9496  145.2210  161.5418 C.3     1  UNL1        0.0095
     14 C         139.8175  146.1710  161.7984 C.3     1  UNL1        0.0005
     15 C         141.1035  145.4161  163.0210 C.3     1  UNL1        0.0005
     16 C         140.4025  145.3558  160.1516 C.3     1  UNL1        0.0162
     17 N         140.4940  144.7432  157.6284 N.3     1  UNL1       -0.2962
     18 H         139.9208  145.5869  157.6181 H       1  UNL1        0.1235
     19 C         139.6581  143.6447  157.0415 C.3     1  UNL1        0.0768
     20 C         138.9163  143.8710  155.7576 C.3     1  UNL1        0.0220
     21 C         139.3761  139.6700  159.1325 C.ar    1  UNL1        0.1387
     22 C         138.5273  140.8194  159.5889 C.ar    1  UNL1        0.0366
     23 C         138.6213  142.1443  158.8919 C.ar    1  UNL1        0.0001
     24 C         139.5641  142.3198  157.7385 C.ar    1  UNL1       -0.0078
     25 C         140.4129  141.1704  157.2822 C.ar    1  UNL1        0.0001
     26 C         140.3189  139.8455  157.9792 C.ar    1  UNL1        0.0366
     27 C         139.2636  138.2857  161.3282 C.3     1  UNL1        0.2525
     28 O         139.2821  138.3451  159.8295 O.3     1  UNL1       -0.4714
     29 N         140.3108  139.7063  165.8327 N.am    1  UNL1       -0.2455
     30 C         138.9740  139.8141  166.5046 C.3     1  UNL1        0.1008
     31 C         138.0277  138.6505  166.4831 C.3     1  UNL1        0.0691
     32 C         138.4182  137.3791  165.7897 C.3     1  UNL1        0.2119
     33 O         139.7550  137.2712  165.1178 O.3     1  UNL1       -0.4345
     34 C         140.7012  138.4348  165.1393 C.2     1  UNL1        0.4050
     35 O         142.0380  138.3270  164.4674 O.2     1  UNL1       -0.2262
     36 C         141.4755  140.3310  167.2369 C.ar    1  UNL1       -0.0059
     37 C         142.6251  139.4065  167.5086 C.ar    1  UNL1       -0.0027
     38 C         142.8435  138.8676  168.8914 C.ar    1  UNL1       -0.0003
     39 C         141.9124  139.2530  170.0023 C.ar    1  UNL1       -0.0000
     40 C         140.7628  140.1774  169.7306 C.ar    1  UNL1       -0.0003
     41 C         140.5443  140.7164  168.3480 C.ar    1  UNL1       -0.0027
@<TRIPOS>BOND
     1    27    28    1
     2    28    21    1
     3    21    22   ar
     4    22    23   ar
     5    23    24   ar
     6    24    19    1
     7    19    20    1
     8    19    17    1
     9     9    17    1
    10     9    10    1
    11    10    11    1
    12    11    12    1
    13    12     1    1
    14     1     2    2
    15     1     3   am
    16     3     4    1
    17     4     5    1
    18     5     6    1
    19     6    36    1
    20    36    37   ar
    21    37    38   ar
    22    38    39   ar
    23    39    40   ar
    24    40    41   ar
    25     6    29    1
    26    29    30    1
    27    30    31    1
    28    31    32    1
    29    32    33    1
    30    33    34    1
    31    34    35    2
    32     6     7    1
    33     7     8    1
    34    12    13    1
    35    13    14    1
    36    13    15    1
    37    13    16    1
    38    24    25   ar
    39    25    26   ar
    40    26    21   ar
    41    16     9    1
    42     8     3    1
    43    41    36   ar
    44    34    29   am
    45    17    18    1
@<TRIPOS>MOLECULE
*****
 41 45 0 0 0
SMALL
GASTEIGER

@<TRIPOS>ATOM
      1 C         142.9465  144.0164  162.9875 C.2     1  UNL1        0.2251
      2 O         143.9005  145.0454  163.5178 O.2     1  UNL1       -0.2749
      3 N         142.3923  142.9652  163.9028 N.am    1  UNL1       -0.2794
      4 C         141.4383  141.9362  163.3725 C.3     1  UNL1        0.0954
      5 C         140.8841  140.8849  164.2877 C.3     1  UNL1        0.0441
      6 C         141.2838  140.8627  165.7333 C.3     1  UNL1        0.0856
      7 C         142.2378  141.8917  166.2636 C.3     1  UNL1        0.0441
      8 C         142.7920  142.9429  165.3484 C.3     1  UNL1        0.0954
      9 C         141.7473  144.0832  158.6508 C.3     1  UNL1        0.0542
     10 C         142.9155  143.2528  159.0932 C.3     1  UNL1        0.0162
     11 C         143.3152  143.2305  160.5388 C.3     1  UNL1        0.0104
     12 C         142.5468  144.0387  161.5419 C.3     1  UNL1        0.0768
     13 C         141.3786  144.8692  161.0995 C.3     1  UNL1        0.0095
     14 C         140.2080  145.8047  161.1673 C.3     1  UNL1        0.0005
     15 C         141.3718  145.1718  162.5686 C.3     1  UNL1        0.0005
     16 C         140.9788  144.8915  159.6539 C.3     1  UNL1        0.0162
     17 N         141.3476  144.1055  157.2052 N.3     1  UNL1       -0.2962
     18 H         141.9674  144.7677  156.7385 H       1  UNL1        0.1235
     19 C         139.9467  144.4784  156.8200 C.3     1  UNL1        0.0768
     20 C         139.6234  145.8947  156.4466 C.3     1  UNL1        0.0220
     21 C         136.7140  141.3481  156.7850 C.ar    1  UNL1        0.1387
     22 C         137.7961  141.2972  157.8225 C.ar    1  UNL1        0.0366
     23 C         138.8737  142.3407  157.8342 C.ar    1  UNL1        0.0001
     24 C         138.8692  143.4350  156.8084 C.ar    1  UNL1       -0.0078
     25 C         137.7871  143.4859  155.7708 C.ar    1  UNL1        0.0001
     26 C         136.7095  142.4425  155.7592 C.ar    1  UNL1        0.0366
     27 C         134.3719  140.5412  156.0022 C.3     1  UNL1        0.2525
     28 O         135.6365  140.3047  156.7733 O.3     1  UNL1       -0.4714
     29 N         140.3568  139.6838  165.7011 N.am    1  UNL1       -0.2455
     30 C         138.9620  139.8116  166.2379 C.3     1  UNL1        0.1008
     31 C         138.0350  138.6327  166.2058 C.3     1  UNL1        0.0691
     32 C         138.5029  137.3261  165.6368 C.3     1  UNL1        0.2119
     33 O         139.8977  137.1983  165.1000 O.3     1  UNL1       -0.4345
     34 C         140.8247  138.3772  165.1322 C.2     1  UNL1        0.4050
     35 O         142.2195  138.2493  164.5954 O.2     1  UNL1       -0.2262
     36 C         141.3616  140.4310  167.1677 C.ar    1  UNL1       -0.0059
     37 C         142.4978  139.5681  167.6307 C.ar    1  UNL1       -0.0027
     38 C         142.5756  139.1364  169.0652 C.ar    1  UNL1       -0.0003
     39 C         141.5172  139.5675  170.0366 C.ar    1  UNL1       -0.0000
     40 C         140.3810  140.4304  169.5736 C.ar    1  UNL1       -0.0003
     41 C         140.3031  140.8621  168.1392 C.ar    1  UNL1       -0.0027
@<TRIPOS>BOND
     1    27    28    1
     2    28    21    1
     3    21    22   ar
     4    22    23   ar
     5    23    24   ar
     6    24    19    1
     7    19    20    1
     8    19    17    1
     9     9    17    1
    10     9    10    1
    11    10    11    1
    12    11    12    1
    13    12     1    1
    14     1     2    2
    15     1     3   am
    16     3     4    1
    17     4     5    1
    18     5     6    1
    19     6    36    1
    20    36    37   ar
    21    37    38   ar
    22    38    39   ar
    23    39    40   ar
    24    40    41   ar
    25     6    29    1
    26    29    30    1
    27    30    31    1
    28    31    32    1
    29    32    33    1
    30    33    34    1
    31    34    35    2
    32     6     7    1
    33     7     8    1
    34    12    13    1
    35    13    14    1
    36    13    15    1
    37    13    16    1
    38    24    25   ar
    39    25    26   ar
    40    26    21   ar
    41    16     9    1
    42     8     3    1
    43    41    36   ar
    44    34    29   am
    45    17    18    1
@<TRIPOS>MOLECULE
*****
 41 45 0 0 0
SMALL
GASTEIGER

@<TRIPOS>ATOM
      1 C         143.0456  144.0516  162.3952 C.2     1  UNL1        0.2251
      2 O         144.0477  145.0732  162.8450 O.2     1  UNL1       -0.2749
      3 N         142.4931  143.0604  163.3761 N.am    1  UNL1       -0.2794
      4 C         141.4911  142.0389  162.9263 C.3     1  UNL1        0.0954
      5 C         140.9385  141.0476  163.9073 C.3     1  UNL1        0.0441
      6 C         141.3881  141.0780  165.3380 C.3     1  UNL1        0.0856
      7 C         142.3901  142.0996  165.7878 C.3     1  UNL1        0.0441
      8 C         142.9426  143.0908  164.8069 C.3     1  UNL1        0.0954
      9 C         141.6971  143.9604  158.1030 C.3     1  UNL1        0.0542
     10 C         140.9084  144.7298  159.1207 C.3     1  UNL1        0.0162
     11 C         141.3579  144.7602  160.5515 C.3     1  UNL1        0.0104
     12 C         142.5961  144.0212  160.9645 C.3     1  UNL1        0.0768
     13 C         143.3849  143.2517  159.9467 C.3     1  UNL1        0.0095
     14 C         144.4593  142.3886  159.3544 C.3     1  UNL1        0.0005
     15 C         144.2075  142.9823  161.1717 C.3     1  UNL1        0.0005
     16 C         142.9354  143.2213  158.5159 C.3     1  UNL1        0.0162
     17 N         141.2476  143.9300  156.6722 N.3     1  UNL1       -0.2962
     18 H         141.9378  144.4553  156.1355 H       1  UNL1        0.1235
     19 C         139.9014  144.4750  156.2973 C.3     1  UNL1        0.0768
     20 C         138.6756  143.6270  156.4656 C.3     1  UNL1        0.0220
     21 C         139.5401  148.6540  154.6677 C.ar    1  UNL1        0.1387
     22 C         138.8500  148.2858  155.9476 C.ar    1  UNL1        0.0366
     23 C         138.9704  146.8928  156.4908 C.ar    1  UNL1        0.0001
     24 C         139.7810  145.8680  155.7541 C.ar    1  UNL1       -0.0078
     25 C         140.4711  146.2362  154.4742 C.ar    1  UNL1        0.0001
     26 C         140.3506  147.6292  153.9310 C.ar    1  UNL1        0.0366
     27 C         138.9095  151.1523  155.0009 C.3     1  UNL1        0.2525
     28 O         139.4197  150.0470  154.1245 O.3     1  UNL1       -0.4714
     29 N         140.4261  139.9283  165.3916 N.am    1  UNL1       -0.2455
     30 C         139.0622  140.1187  165.9863 C.3     1  UNL1        0.1008
     31 C         138.1003  138.9690  166.0399 C.3     1  UNL1        0.0691
     32 C         138.5021  137.6291  165.4987 C.3     1  UNL1        0.2119
     33 O         139.8660  137.4387  164.9039 O.3     1  UNL1       -0.4345
     34 C         140.8280  138.5884  164.8504 C.2     1  UNL1        0.4050
     35 O         142.1918  138.3980  164.2556 O.2     1  UNL1       -0.2262
     36 C         141.5035  140.7091  166.7873 C.ar    1  UNL1       -0.0059
     37 C         142.4841  139.6591  167.2182 C.ar    1  UNL1       -0.0027
     38 C         142.5995  139.2902  168.6676 C.ar    1  UNL1       -0.0003
     39 C         141.7344  139.9713  169.6861 C.ar    1  UNL1       -0.0000
     40 C         140.7537  141.0214  169.2552 C.ar    1  UNL1       -0.0003
     41 C         140.6382  141.3904  167.8059 C.ar    1  UNL1       -0.0027
@<TRIPOS>BOND
     1    27    28    1
     2    28    21    1
     3    21    22   ar
     4    22    23   ar
     5    23    24   ar
     6    24    19    1
     7    19    20    1
     8    19    17    1
     9     9    17    1
    10     9    10    1
    11    10    11    1
    12    11    12    1
    13    12     1    1
    14     1     2    2
    15     1     3   am
    16     3     4    1
    17     4     5    1
    18     5     6    1
    19     6    36    1
    20    36    37   ar
    21    37    38   ar
    22    38    39   ar
    23    39    40   ar
    24    40    41   ar
    25     6    29    1
    26    29    30    1
    27    30    31    1
    28    31    32    1
    29    32    33    1
    30    33    34    1
    31    34    35    2
    32     6     7    1
    33     7     8    1
    34    12    13    1
    35    13    14    1
    36    13    15    1
    37    13    16    1
    38    24    25   ar
    39    25    26   ar
    40    26    21   ar
    41    16     9    1
    42     8     3    1
    43    41    36   ar
    44    34    29   am
    45    17    18    1
@<TRIPOS>MOLECULE
*****
 41 45 0 0 0
SMALL
GASTEIGER

@<TRIPOS>ATOM
      1 C         140.6565  144.2188  161.4494 C.2     1  UNL1        0.2251
      2 O         141.6179  145.1781  162.0862 O.2     1  UNL1       -0.2749
      3 N         140.3608  144.3164  159.9821 N.am    1  UNL1       -0.2794
      4 C         139.3994  143.3571  159.3454 C.3     1  UNL1        0.0954
      5 C         139.1037  143.4547  157.8780 C.3     1  UNL1        0.0441
      6 C         139.7694  144.5116  157.0474 C.3     1  UNL1        0.0856
      7 C         140.7308  145.4709  157.6842 C.3     1  UNL1        0.0441
      8 C         141.0265  145.3733  159.1515 C.3     1  UNL1        0.0954
      9 C         138.6594  141.0482  163.9411 C.3     1  UNL1        0.0542
     10 C         139.8602  140.7038  163.1108 C.3     1  UNL1        0.0162
     11 C         140.5259  141.7606  162.2802 C.3     1  UNL1        0.0104
     12 C         139.9908  143.1619  162.2800 C.3     1  UNL1        0.0768
     13 C         138.7899  143.5064  163.1103 C.3     1  UNL1        0.0095
     14 C         137.6873  144.3154  163.7265 C.3     1  UNL1        0.0005
     15 C         139.0727  144.8442  162.4937 C.3     1  UNL1        0.0005
     16 C         138.1242  142.4495  163.9409 C.3     1  UNL1        0.0162
     17 N         137.9937  139.9913  164.7717 N.3     1  UNL1       -0.2962
     18 H         137.4181  140.4767  165.4597 H       1  UNL1        0.1235
     19 C         138.8248  138.9967  165.5267 C.3     1  UNL1        0.0768
     20 C         138.7705  137.5429  165.1613 C.3     1  UNL1        0.0220
     21 C         141.4808  140.3742  168.8879 C.ar    1  UNL1        0.1387
     22 C         139.9970  140.2899  169.0909 C.ar    1  UNL1        0.0366
     23 C         139.1116  139.8307  167.9705 C.ar    1  UNL1        0.0001
     24 C         139.7101  139.4559  166.6471 C.ar    1  UNL1       -0.0078
     25 C         141.1939  139.5403  166.4441 C.ar    1  UNL1        0.0001
     26 C         142.0792  139.9994  167.5646 C.ar    1  UNL1        0.0366
     27 C         141.7977  141.6619  171.1221 C.3     1  UNL1        0.2525
     28 O         142.3661  140.8334  170.0083 O.3     1  UNL1       -0.4714
     29 N         138.9390  143.8381  155.9954 N.am    1  UNL1       -0.2455
     30 C         137.7012  144.5068  155.4749 C.3     1  UNL1        0.1008
     31 C         136.8708  143.8333  154.4228 C.3     1  UNL1        0.0691
     32 C         137.2782  142.4912  153.8912 C.3     1  UNL1        0.2119
     33 O         138.5159  141.8225  154.4117 O.3     1  UNL1       -0.4345
     34 C         139.3463  142.4960  155.4637 C.2     1  UNL1        0.4050
     35 O         140.5841  141.8272  155.9842 O.2     1  UNL1       -0.2262
     36 C         140.1467  145.3345  155.8515 C.ar    1  UNL1       -0.0059
     37 C         139.5205  146.6810  155.6399 C.ar    1  UNL1       -0.0027
     38 C         139.8978  147.5040  154.4439 C.ar    1  UNL1       -0.0003
     39 C         140.9013  146.9806  153.4596 C.ar    1  UNL1       -0.0000
     40 C         141.5275  145.6341  153.6713 C.ar    1  UNL1       -0.0003
     41 C         141.1502  144.8110  154.8672 C.ar    1  UNL1       -0.0027
@<TRIPOS>BOND
     1    27    28    1
     2    28    21    1
     3    21    22   ar
     4    22    23   ar
     5    23    24   ar
     6    24    19    1
     7    19    20    1
     8    19    17    1
     9     9    17    1
    10     9    10    1
    11    10    11    1
    12    11    12    1
    13    12     1    1
    14     1     2    2
    15     1     3   am
    16     3     4    1
    17     4     5    1
    18     5     6    1
    19     6    36    1
    20    36    37   ar
    21    37    38   ar
    22    38    39   ar
    23    39    40   ar
    24    40    41   ar
    25     6    29    1
    26    29    30    1
    27    30    31    1
    28    31    32    1
    29    32    33    1
    30    33    34    1
    31    34    35    2
    32     6     7    1
    33     7     8    1
    34    12    13    1
    35    13    14    1
    36    13    15    1
    37    13    16    1
    38    24    25   ar
    39    25    26   ar
    40    26    21   ar
    41    16     9    1
    42     8     3    1
    43    41    36   ar
    44    34    29   am
    45    17    18    1
@<TRIPOS>MOLECULE
*****
 41 45 0 0 0
SMALL
GASTEIGER

@<TRIPOS>ATOM
      1 C         140.1814  144.8015  161.9288 C.2     1  UNL1        0.2251
      2 O         140.0419  146.2867  161.7710 O.2     1  UNL1       -0.2749
      3 N         140.1939  143.9166  160.7178 N.am    1  UNL1       -0.2794
      4 C         140.3334  142.4315  160.8756 C.3     1  UNL1        0.0954
      5 C         140.3459  141.5464  159.6646 C.3     1  UNL1        0.0441
      6 C         140.2189  142.1465  158.2958 C.3     1  UNL1        0.0856
      7 C         140.0794  143.6317  158.1380 C.3     1  UNL1        0.0441
      8 C         140.0669  144.5167  159.3490 C.3     1  UNL1        0.0954
      9 C         140.5625  143.0012  166.0353 C.3     1  UNL1        0.0542
     10 C         141.7780  143.1625  165.1714 C.3     1  UNL1        0.0162
     11 C         141.6510  143.7626  163.8025 C.3     1  UNL1        0.0104
     12 C         140.3084  144.2014  163.2977 C.3     1  UNL1        0.0768
     13 C         139.0928  144.0402  164.1616 C.3     1  UNL1        0.0095
     14 C         137.6604  144.0938  164.6035 C.3     1  UNL1        0.0005
     15 C         138.4684  144.6589  162.9463 C.3     1  UNL1        0.0005
     16 C         139.2199  143.4401  165.5305 C.3     1  UNL1        0.0162
     17 N         140.6895  142.4011  167.4042 N.3     1  UNL1       -0.2962
     18 H         141.6487  142.5653  167.7098 H       1  UNL1        0.1235
     19 C         140.4128  140.9416  167.6119 C.3     1  UNL1        0.0768
     20 C         140.3869  140.3733  168.9998 C.3     1  UNL1        0.0220
     21 C         139.6602  138.2681  164.0713 C.ar    1  UNL1        0.1387
     22 C         138.5098  138.9345  164.7658 C.ar    1  UNL1        0.0366
     23 C         138.7607  139.8257  165.9460 C.ar    1  UNL1        0.0001
     24 C         140.1619  140.0504  166.4317 C.ar    1  UNL1       -0.0078
     25 C         141.3123  139.3840  165.7371 C.ar    1  UNL1        0.0001
     26 C         141.0615  138.4928  164.5569 C.ar    1  UNL1        0.0366
     27 C         139.3419  137.9610  161.5111 C.3     1  UNL1        0.2525
     28 O         139.4093  137.3769  162.8911 O.3     1  UNL1       -0.4714
     29 N         140.3274  140.6947  157.9347 N.am    1  UNL1       -0.2455
     30 C         141.6226  140.1462  157.4134 C.3     1  UNL1        0.1008
     31 C         141.7312  138.6944  157.0523 C.3     1  UNL1        0.0691
     32 C         140.5445  137.7910  157.2124 C.3     1  UNL1        0.2119
     33 O         139.2493  138.3394  157.7337 O.3     1  UNL1       -0.4345
     34 C         139.1408  139.7913  158.0948 C.2     1  UNL1        0.4050
     35 O         137.8455  140.3397  158.6160 O.2     1  UNL1       -0.2262
     36 C         140.1296  142.2424  156.8015 C.ar    1  UNL1       -0.0059
     37 C         138.8151  142.0225  156.1131 C.ar    1  UNL1       -0.0027
     38 C         138.7258  142.1184  154.6188 C.ar    1  UNL1       -0.0003
     39 C         139.9508  142.4342  153.8130 C.ar    1  UNL1       -0.0000
     40 C         141.2652  142.6541  154.5014 C.ar    1  UNL1       -0.0003
     41 C         141.3547  142.5583  155.9956 C.ar    1  UNL1       -0.0027
@<TRIPOS>BOND
     1    27    28    1
     2    28    21    1
     3    21    22   ar
     4    22    23   ar
     5    23    24   ar
     6    24    19    1
     7    19    20    1
     8    19    17    1
     9     9    17    1
    10     9    10    1
    11    10    11    1
    12    11    12    1
    13    12     1    1
    14     1     2    2
    15     1     3   am
    16     3     4    1
    17     4     5    1
    18     5     6    1
    19     6    36    1
    20    36    37   ar
    21    37    38   ar
    22    38    39   ar
    23    39    40   ar
    24    40    41   ar
    25     6    29    1
    26    29    30    1
    27    30    31    1
    28    31    32    1
    29    32    33    1
    30    33    34    1
    31    34    35    2
    32     6     7    1
    33     7     8    1
    34    12    13    1
    35    13    14    1
    36    13    15    1
    37    13    16    1
    38    24    25   ar
    39    25    26   ar
    40    26    21   ar
    41    16     9    1
    42     8     3    1
    43    41    36   ar
    44    34    29   am
    45    17    18    1
@<TRIPOS>MOLECULE
*****
 41 45 0 0 0
SMALL
GASTEIGER

@<TRIPOS>ATOM
      1 C         140.5067  145.0485  162.0867 C.2     1  UNL1        0.2251
      2 O         140.1616  146.5056  161.9987 O.2     1  UNL1       -0.2749
      3 N         140.8835  144.2909  160.8482 N.am    1  UNL1       -0.2794
      4 C         141.2286  142.8338  160.9362 C.3     1  UNL1        0.0954
      5 C         141.6055  142.0762  159.6976 C.3     1  UNL1        0.0441
      6 C         141.6372  142.7756  158.3711 C.3     1  UNL1        0.0856
      7 C         141.2921  144.2328  158.2831 C.3     1  UNL1        0.0441
      8 C         140.9153  144.9904  159.5216 C.3     1  UNL1        0.0954
      9 C         140.4115  142.9500  166.0663 C.3     1  UNL1        0.0542
     10 C         141.7247  143.2356  165.4003 C.3     1  UNL1        0.0162
     11 C         141.7565  143.9350  164.0737 C.3     1  UNL1        0.0104
     12 C         140.4749  144.3490  163.4133 C.3     1  UNL1        0.0768
     13 C         139.1616  144.0635  164.0793 C.3     1  UNL1        0.0095
     14 C         137.6807  144.0150  164.3129 C.3     1  UNL1        0.0005
     15 C         138.6790  144.7461  162.8339 C.3     1  UNL1        0.0005
     16 C         139.1298  143.3640  165.4059 C.3     1  UNL1        0.0162
     17 N         140.3797  142.2505  167.3929 N.3     1  UNL1       -0.2962
     18 H         141.3231  142.3047  167.7770 H       1  UNL1        0.1235
     19 C         139.9617  140.8122  167.4725 C.3     1  UNL1        0.0768
     20 C         139.5520  140.2221  168.7892 C.3     1  UNL1        0.0220
     21 C         139.9369  138.2675  163.7612 C.ar    1  UNL1        0.1387
     22 C         141.2164  138.4843  164.5133 C.ar    1  UNL1        0.0366
     23 C         141.2247  139.3325  165.7504 C.ar    1  UNL1        0.0001
     24 C         139.9534  139.9640  166.2354 C.ar    1  UNL1       -0.0078
     25 C         138.6739  139.7472  165.4832 C.ar    1  UNL1        0.0001
     26 C         138.6656  138.8990  164.2461 C.ar    1  UNL1        0.0366
     27 C         139.4765  138.0022  161.2180 C.3     1  UNL1        0.2525
     28 O         139.9286  137.4193  162.5240 O.3     1  UNL1       -0.4714
     29 N         142.0422  141.3949  157.9473 N.am    1  UNL1       -0.2455
     30 C         141.0526  140.5005  157.2611 C.3     1  UNL1        0.1008
     31 C         141.4576  139.1198  156.8373 C.3     1  UNL1        0.0691
     32 C         142.8521  138.6335  157.0997 C.3     1  UNL1        0.2119
     33 O         143.8417  139.5279  157.7858 O.3     1  UNL1       -0.4345
     34 C         143.4367  140.9086  158.2096 C.2     1  UNL1        0.4050
     35 O         144.4263  141.8031  158.8958 O.2     1  UNL1       -0.2262
     36 C         141.8096  142.9956  156.8974 C.ar    1  UNL1       -0.0059
     37 C         143.1730  143.2675  156.3341 C.ar    1  UNL1       -0.0027
     38 C         143.3453  143.4875  154.8603 C.ar    1  UNL1       -0.0003
     39 C         142.1545  143.4356  153.9499 C.ar    1  UNL1       -0.0000
     40 C         140.7911  143.1637  154.5132 C.ar    1  UNL1       -0.0003
     41 C         140.6186  142.9437  155.9869 C.ar    1  UNL1       -0.0027
@<TRIPOS>BOND
     1    27    28    1
     2    28    21    1
     3    21    22   ar
     4    22    23   ar
     5    23    24   ar
     6    24    19    1
     7    19    20    1
     8    19    17    1
     9     9    17    1
    10     9    10    1
    11    10    11    1
    12    11    12    1
    13    12     1    1
    14     1     2    2
    15     1     3   am
    16     3     4    1
    17     4     5    1
    18     5     6    1
    19     6    36    1
    20    36    37   ar
    21    37    38   ar
    22    38    39   ar
    23    39    40   ar
    24    40    41   ar
    25     6    29    1
    26    29    30    1
    27    30    31    1
    28    31    32    1
    29    32    33    1
    30    33    34    1
    31    34    35    2
    32     6     7    1
    33     7     8    1
    34    12    13    1
    35    13    14    1
    36    13    15    1
    37    13    16    1
    38    24    25   ar
    39    25    26   ar
    40    26    21   ar
    41    16     9    1
    42     8     3    1
    43    41    36   ar
    44    34    29   am
    45    17    18    1
@<TRIPOS>MOLECULE
*****
 41 45 0 0 0
SMALL
GASTEIGER

@<TRIPOS>ATOM
      1 C         144.8439  141.6686  163.3849 C.2     1  UNL1        0.2251
      2 O         146.3435  141.6846  163.3543 O.2     1  UNL1       -0.2749
      3 N         144.0656  141.8741  162.1192 N.am    1  UNL1       -0.2794
      4 C         142.5660  141.8582  162.1500 C.3     1  UNL1        0.0954
      5 C         141.7877  142.0637  160.8842 C.3     1  UNL1        0.0441
      6 C         142.5090  142.2852  159.5878 C.3     1  UNL1        0.0856
      7 C         144.0087  142.3012  159.5572 C.3     1  UNL1        0.0441
      8 C         144.7869  142.0956  160.8228 C.3     1  UNL1        0.0954
      9 C         142.6799  141.0041  167.2741 C.3     1  UNL1        0.0542
     10 C         143.0535  142.3940  166.8517 C.3     1  UNL1        0.0162
     11 C         143.7748  142.6155  165.5553 C.3     1  UNL1        0.0104
     12 C         144.1226  141.4471  164.6813 C.3     1  UNL1        0.0768
     13 C         143.7490  140.0571  165.1038 C.3     1  UNL1        0.0095
     14 C         143.6091  138.5640  165.0722 C.3     1  UNL1        0.0005
     15 C         144.4217  139.7601  163.7964 C.3     1  UNL1        0.0005
     16 C         143.0277  139.8356  166.4002 C.3     1  UNL1        0.0162
     17 N         141.9586  140.7826  168.5705 N.3     1  UNL1       -0.2962
     18 H         142.3084  139.9054  168.9559 H       1  UNL1        0.1235
     19 C         140.4612  140.6978  168.5907 C.3     1  UNL1        0.0768
     20 C         139.7295  140.6639  169.8996 C.3     1  UNL1        0.0220
     21 C         138.1640  140.5455  164.7242 C.ar    1  UNL1        0.1387
     22 C         138.1896  139.3494  165.6290 C.ar    1  UNL1        0.0366
     23 C         138.9553  139.4002  166.9178 C.ar    1  UNL1        0.0001
     24 C         139.6955  140.6471  167.3019 C.ar    1  UNL1       -0.0078
     25 C         139.6699  141.8431  166.3971 C.ar    1  UNL1        0.0001
     26 C         138.9041  141.7923  165.1082 C.ar    1  UNL1        0.0366
     27 C         137.9893  139.8110  162.2383 C.3     1  UNL1        0.2525
     28 O         137.3982  140.4947  163.4354 O.3     1  UNL1       -0.4714
     29 N         141.0886  142.3545  159.1108 N.am    1  UNL1       -0.2455
     30 C         140.4988  141.2092  158.3424 C.3     1  UNL1        0.1008
     31 C         139.0784  141.2785  157.8653 C.3     1  UNL1        0.0691
     32 C         138.2478  142.4930  158.1566 C.3     1  UNL1        0.2119
     33 O         138.8376  143.6384  158.9250 O.3     1  UNL1       -0.4345
     34 C         140.2580  143.5691  159.4021 C.2     1  UNL1        0.4050
     35 O         140.8478  144.7144  160.1705 O.2     1  UNL1       -0.2262
     36 C         142.7370  142.5308  158.1258 C.ar    1  UNL1       -0.0059
     37 C         143.1954  141.4106  157.2397 C.ar    1  UNL1       -0.0027
     38 C         143.4234  141.6563  155.7775 C.ar    1  UNL1       -0.0003
     39 C         143.1931  143.0219  155.2016 C.ar    1  UNL1       -0.0000
     40 C         142.7347  144.1420  156.0877 C.ar    1  UNL1       -0.0003
     41 C         142.5067  143.8965  157.5498 C.ar    1  UNL1       -0.0027
@<TRIPOS>BOND
     1    27    28    1
     2    28    21    1
     3    21    22   ar
     4    22    23   ar
     5    23    24   ar
     6    24    19    1
     7    19    20    1
     8    19    17    1
     9     9    17    1
    10     9    10    1
    11    10    11    1
    12    11    12    1
    13    12     1    1
    14     1     2    2
    15     1     3   am
    16     3     4    1
    17     4     5    1
    18     5     6    1
    19     6    36    1
    20    36    37   ar
    21    37    38   ar
    22    38    39   ar
    23    39    40   ar
    24    40    41   ar
    25     6    29    1
    26    29    30    1
    27    30    31    1
    28    31    32    1
    29    32    33    1
    30    33    34    1
    31    34    35    2
    32     6     7    1
    33     7     8    1
    34    12    13    1
    35    13    14    1
    36    13    15    1
    37    13    16    1
    38    24    25   ar
    39    25    26   ar
    40    26    21   ar
    41    16     9    1
    42     8     3    1
    43    41    36   ar
    44    34    29   am
    45    17    18    1
@<TRIPOS>MOLECULE
*****
 41 45 0 0 0
SMALL
GASTEIGER

@<TRIPOS>ATOM
      1 C         143.5458  138.7186  161.7494 C.2     1  UNL1        0.2251
      2 O         144.3245  137.4960  161.3634 O.2     1  UNL1       -0.2749
      3 N         143.1706  139.7292  160.7064 N.am    1  UNL1       -0.2794
      4 C         142.3920  140.9517  161.0925 C.3     1  UNL1        0.0954
      5 C         142.0167  141.9623  160.0494 C.3     1  UNL1        0.0441
      6 C         142.4201  141.7503  158.6203 C.3     1  UNL1        0.0856
      7 C         143.1988  140.5277  158.2343 C.3     1  UNL1        0.0441
      8 C         143.5740  139.5172  159.2773 C.3     1  UNL1        0.0954
      9 C         142.3356  139.3546  166.0367 C.3     1  UNL1        0.0542
     10 C         143.4777  140.1346  165.4562 C.3     1  UNL1        0.0162
     11 C         143.8811  139.9226  164.0271 C.3     1  UNL1        0.0104
     12 C         143.1424  138.9306  163.1785 C.3     1  UNL1        0.0768
     13 C         142.0002  138.1506  163.7590 C.3     1  UNL1        0.0095
     14 C         140.8607  137.1798  163.8548 C.3     1  UNL1        0.0005
     15 C         142.0079  137.6014  162.3632 C.3     1  UNL1        0.0005
     16 C         141.5968  138.3626  165.1881 C.3     1  UNL1        0.0162
     17 N         141.9322  139.5666  167.4658 N.3     1  UNL1       -0.2962
     18 H         141.8620  138.6427  167.8921 H       1  UNL1        0.1235
     19 C         140.6573  140.2892  167.7860 C.3     1  UNL1        0.0768
     20 C         140.0650  140.1919  169.1606 C.3     1  UNL1        0.0220
     21 C         138.6098  142.7490  164.6226 C.ar    1  UNL1        0.1387
     22 C         139.6577  143.3725  165.4961 C.ar    1  UNL1        0.0366
     23 C         140.3402  142.5526  166.5505 C.ar    1  UNL1        0.0001
     24 C         139.9748  141.1091  166.7315 C.ar    1  UNL1       -0.0078
     25 C         138.9269  140.4856  165.8580 C.ar    1  UNL1        0.0001
     26 C         138.2444  141.3055  164.8036 C.ar    1  UNL1        0.0366
     27 C         137.9419  143.1148  162.1386 C.3     1  UNL1        0.2525
     28 O         137.9273  143.5689  163.5681 O.3     1  UNL1       -0.4714
     29 N         141.6940  143.0569  158.4949 N.am    1  UNL1       -0.2455
     30 C         142.4615  144.3197  158.2376 C.3     1  UNL1        0.1008
     31 C         141.7353  145.6263  158.1123 C.3     1  UNL1        0.0691
     32 C         140.2418  145.6699  158.2442 C.3     1  UNL1        0.2119
     33 O         139.4744  144.4070  158.5015 O.3     1  UNL1       -0.4345
     34 C         140.2005  143.1005  158.6269 C.2     1  UNL1        0.4050
     35 O         139.4330  141.8376  158.8842 O.2     1  UNL1       -0.2262
     36 C         142.5714  141.9921  157.1477 C.ar    1  UNL1       -0.0059
     37 C         143.8765  142.4878  156.5992 C.ar    1  UNL1       -0.0027
     38 C         144.0277  142.7295  155.1265 C.ar    1  UNL1       -0.0003
     39 C         142.8739  142.4756  154.2024 C.ar    1  UNL1       -0.0000
     40 C         141.5688  141.9799  154.7509 C.ar    1  UNL1       -0.0003
     41 C         141.4174  141.7381  156.2235 C.ar    1  UNL1       -0.0027
@<TRIPOS>BOND
     1    27    28    1
     2    28    21    1
     3    21    22   ar
     4    22    23   ar
     5    23    24   ar
     6    24    19    1
     7    19    20    1
     8    19    17    1
     9     9    17    1
    10     9    10    1
    11    10    11    1
    12    11    12    1
    13    12     1    1
    14     1     2    2
    15     1     3   am
    16     3     4    1
    17     4     5    1
    18     5     6    1
    19     6    36    1
    20    36    37   ar
    21    37    38   ar
    22    38    39   ar
    23    39    40   ar
    24    40    41   ar
    25     6    29    1
    26    29    30    1
    27    30    31    1
    28    31    32    1
    29    32    33    1
    30    33    34    1
    31    34    35    2
    32     6     7    1
    33     7     8    1
    34    12    13    1
    35    13    14    1
    36    13    15    1
    37    13    16    1
    38    24    25   ar
    39    25    26   ar
    40    26    21   ar
    41    16     9    1
    42     8     3    1
    43    41    36   ar
    44    34    29   am
    45    17    18    1
