@<TRIPOS>MOLECULE
*****
 48 52 0 0 0
SMALL
GASTEIGER

@<TRIPOS>ATOM
      1 C         142.6156  140.5481  166.1097 C.ar    1  UNL1        0.1443
      2 N         143.5299  141.7371  166.1212 N.ar    1  UNL1       -0.2302
      3 C         143.3540  142.8283  165.1070 C.ar    1  UNL1        0.0878
      4 C         144.2683  144.0174  165.1185 C.ar    1  UNL1        0.0193
      5 C         144.0925  145.1084  164.1043 C.ar    1  UNL1        0.0022
      6 C         143.0023  145.0104  163.0786 C.ar    1  UNL1        0.0085
      7 C         142.0881  143.8213  163.0671 C.ar    1  UNL1        0.0477
      8 C         142.2639  142.7303  164.0813 C.ar    1  UNL1        0.0818
      9 C         141.3496  141.5411  164.0698 C.ar    1  UNL1        0.2676
     10 O         140.2595  141.4431  163.0441 O.2     1  UNL1       -0.2665
     11 N         141.5255  140.4501  165.0840 N.ar    1  UNL1       -0.2613
     12 C         140.6112  139.2609  165.0725 C.ar    1  UNL1        0.0680
     13 C         141.0259  138.0028  164.3690 C.ar    1  UNL1        0.0176
     14 C         140.1117  136.8136  164.3575 C.ar    1  UNL1        0.0015
     15 C         138.7827  136.8827  165.0495 C.ar    1  UNL1        0.0001
     16 C         138.3680  138.1409  165.7531 C.ar    1  UNL1        0.0015
     17 C         139.2822  139.3300  165.7646 C.ar    1  UNL1        0.0176
     18 C         140.9980  143.7233  162.0414 C.1     1  UNL1       -0.0642
     19 C         139.9078  143.6253  161.0157 C.1     1  UNL1       -0.0864
     20 C         138.8177  143.5273  159.9900 C.3     1  UNL1        0.0769
     21 C         139.1324  143.0459  158.6047 C.3     1  UNL1        0.0235
     22 C         138.5785  141.7385  158.1211 C.3     1  UNL1        0.0863
     23 C         139.2681  140.4545  158.4761 C.2     1  UNL1        0.2257
     24 O         140.3619  139.9231  157.5980 O.2     1  UNL1       -0.2749
     25 N         138.8638  139.7021  159.7091 N.am    1  UNL1       -0.2795
     26 C         137.7932  140.1077  160.6782 C.3     1  UNL1        0.0935
     27 C         137.7269  139.0682  161.7576 C.3     1  UNL1        0.0233
     28 C         138.7566  138.0201  161.4556 C.3     1  UNL1        0.0233
     29 C         139.4592  138.4118  160.1895 C.3     1  UNL1        0.0935
     30 C         142.7914  139.4569  167.1239 C.3     1  UNL1        0.1282
     31 C         144.6612  138.3911  165.6688 C.3     1  UNL1        0.0022
     32 C         143.7503  138.3343  166.8592 C.3     1  UNL1        0.0273
     33 N         142.0082  139.4885  168.4029 N.pl3   1  UNL1       -0.3129
     34 H         141.4861  138.7012  168.6798 H       1  UNL1        0.1486
     35 C         142.0207  140.7195  169.2597 C.ar    1  UNL1        0.1440
     36 N         143.3015  141.4697  169.4762 N.ar    1  UNL1       -0.1985
     37 C         143.3140  142.7008  170.3331 C.ar    1  UNL1        0.2160
     38 N         144.5947  143.4509  170.5496 N.pl3   1  UNL1       -0.3274
     39 N         142.0457  143.1817  170.9736 N.ar    1  UNL1       -0.1987
     40 C         140.7649  142.4315  170.7571 C.ar    1  UNL1        0.1407
     41 N         139.4966  142.9124  171.3975 N.pl3   1  UNL1       -0.3419
     42 C         140.7524  141.2004  169.9002 C.ar    1  UNL1        0.1308
     43 H         145.4272  143.1353  170.1292 H       1  UNL1        0.1452
     44 H         144.6030  144.2589  171.1120 H       1  UNL1        0.1452
     45 H         139.5048  143.7204  171.9600 H       1  UNL1        0.1437
     46 H         138.6560  142.4200  171.2555 H       1  UNL1        0.1437
     47 C         139.4717  140.4503  169.6838 C.1     1  UNL1        0.1061
     48 N         138.1908  139.7001  169.4673 N.1     1  UNL1       -0.1906
@<TRIPOS>BOND
     1    31    32    1
     2    30    32    1
     3    30    33    1
     4    33    35    1
     5    35    36   ar
     6    36    37   ar
     7    37    38    1
     8    37    39   ar
     9    39    40   ar
    10    40    41    1
    11    40    42   ar
    12    42    47    1
    13    47    48    3
    14    30     1    1
    15     1     2   ar
    16     2     3   ar
    17     3     4   ar
    18     4     5   ar
    19     5     6   ar
    20     6     7   ar
    21     7    18    1
    22    18    19    3
    23    19    20    1
    24    20    21    1
    25    21    22    1
    26    22    23    1
    27    23    24    2
    28    23    25   am
    29    25    26    1
    30    26    27    1
    31    27    28    1
    32    28    29    1
    33     7     8   ar
    34     8     9   ar
    35     9    10    2
    36     9    11   ar
    37    11    12    1
    38    12    13   ar
    39    13    14   ar
    40    14    15   ar
    41    15    16   ar
    42    16    17   ar
    43    42    35   ar
    44    11     1   ar
    45    17    12   ar
    46     8     3   ar
    47    29    25    1
    48    33    34    1
    49    38    43    1
    50    38    44    1
    51    41    45    1
    52    41    46    1
@<TRIPOS>MOLECULE
*****
 48 52 0 0 0
SMALL
GASTEIGER

@<TRIPOS>ATOM
      1 C         140.7836  140.1830  164.3067 C.ar    1  UNL1        0.1443
      2 N         141.6056  139.0447  163.7789 N.ar    1  UNL1       -0.2302
      3 C         141.8131  138.8915  162.3012 C.ar    1  UNL1        0.0878
      4 C         142.6351  137.7533  161.7733 C.ar    1  UNL1        0.0193
      5 C         142.8427  137.6001  160.2957 C.ar    1  UNL1        0.0022
      6 C         142.2282  138.5852  159.3459 C.ar    1  UNL1        0.0085
      7 C         141.4062  139.7234  159.8738 C.ar    1  UNL1        0.0477
      8 C         141.1987  139.8766  161.3514 C.ar    1  UNL1        0.0818
      9 C         140.3766  141.0149  161.8793 C.ar    1  UNL1        0.2676
     10 O         139.7621  141.9999  160.9296 O.2     1  UNL1       -0.2665
     11 N         140.1691  141.1680  163.3570 N.ar    1  UNL1       -0.2613
     12 C         139.3470  142.3063  163.8849 C.ar    1  UNL1        0.0680
     13 C         140.0204  143.5551  164.3720 C.ar    1  UNL1        0.0176
     14 C         139.1985  144.6933  164.8999 C.ar    1  UNL1        0.0015
     15 C         137.7031  144.5828  164.9407 C.ar    1  UNL1        0.0001
     16 C         137.0297  143.3341  164.4536 C.ar    1  UNL1        0.0015
     17 C         137.8517  142.1958  163.9257 C.ar    1  UNL1        0.0176
     18 C         140.7917  140.7085  158.9240 C.1     1  UNL1       -0.0642
     19 C         140.1772  141.6935  157.9742 C.1     1  UNL1       -0.0864
     20 C         139.5627  142.6786  157.0245 C.3     1  UNL1        0.0769
     21 C         139.6983  144.1506  157.2790 C.3     1  UNL1        0.0235
     22 C         140.9366  144.6877  157.9331 C.3     1  UNL1        0.0863
     23 C         140.9615  144.9202  159.4148 C.2     1  UNL1        0.2257
     24 O         139.9493  145.8277  160.0487 O.2     1  UNL1       -0.2749
     25 N         141.9987  144.2453  160.2626 N.am    1  UNL1       -0.2795
     26 C         143.0695  143.3161  159.7728 C.3     1  UNL1        0.0935
     27 C         143.8798  142.8775  160.9564 C.3     1  UNL1        0.0233
     28 C         143.3097  143.5356  162.1779 C.3     1  UNL1        0.0233
     29 C         142.1472  144.3809  161.7490 C.3     1  UNL1        0.0935
     30 C         140.5760  140.3362  165.7844 C.3     1  UNL1        0.1282
     31 C         138.4151  138.9023  165.6296 C.3     1  UNL1        0.0022
     32 C         139.3911  139.6969  166.4456 C.3     1  UNL1        0.0273
     33 N         141.5534  141.1288  166.6009 N.pl3   1  UNL1       -0.3129
     34 H         142.1428  141.7846  166.1630 H       1  UNL1        0.1486
     35 C         141.6328  140.9220  168.0844 C.ar    1  UNL1        0.1440
     36 N         140.9002  141.8467  169.0107 N.ar    1  UNL1       -0.1985
     37 C         140.9796  141.6400  170.4944 C.ar    1  UNL1        0.2160
     38 N         140.2469  142.5647  171.4207 N.pl3   1  UNL1       -0.3274
     39 N         141.7917  140.5086  171.0515 N.ar    1  UNL1       -0.1987
     40 C         142.5244  139.5839  170.1251 C.ar    1  UNL1        0.1407
     41 N         143.3365  138.4525  170.6823 N.pl3   1  UNL1       -0.3419
     42 C         142.4449  139.7906  168.6416 C.ar    1  UNL1        0.1308
     43 H         139.7139  143.3072  171.0550 H       1  UNL1        0.1452
     44 H         140.2991  142.4290  172.3944 H       1  UNL1        0.1452
     45 H         143.3886  138.3169  171.6560 H       1  UNL1        0.1437
     46 H         143.8173  137.8456  170.0743 H       1  UNL1        0.1437
     47 C         143.1776  138.8660  167.7152 C.1     1  UNL1        0.1061
     48 N         143.9102  137.9413  166.7888 N.1     1  UNL1       -0.1906
@<TRIPOS>BOND
     1    31    32    1
     2    30    32    1
     3    30    33    1
     4    33    35    1
     5    35    36   ar
     6    36    37   ar
     7    37    38    1
     8    37    39   ar
     9    39    40   ar
    10    40    41    1
    11    40    42   ar
    12    42    47    1
    13    47    48    3
    14    30     1    1
    15     1     2   ar
    16     2     3   ar
    17     3     4   ar
    18     4     5   ar
    19     5     6   ar
    20     6     7   ar
    21     7    18    1
    22    18    19    3
    23    19    20    1
    24    20    21    1
    25    21    22    1
    26    22    23    1
    27    23    24    2
    28    23    25   am
    29    25    26    1
    30    26    27    1
    31    27    28    1
    32    28    29    1
    33     7     8   ar
    34     8     9   ar
    35     9    10    2
    36     9    11   ar
    37    11    12    1
    38    12    13   ar
    39    13    14   ar
    40    14    15   ar
    41    15    16   ar
    42    16    17   ar
    43    42    35   ar
    44    11     1   ar
    45    17    12   ar
    46     8     3   ar
    47    29    25    1
    48    33    34    1
    49    38    43    1
    50    38    44    1
    51    41    45    1
    52    41    46    1
@<TRIPOS>MOLECULE
*****
 48 52 0 0 0
SMALL
GASTEIGER

@<TRIPOS>ATOM
      1 C         142.7877  140.5959  166.0226 C.ar    1  UNL1        0.1443
      2 N         143.6109  141.8271  166.2604 N.ar    1  UNL1       -0.2302
      3 C         143.5989  142.9426  165.2575 C.ar    1  UNL1        0.0878
      4 C         144.4220  144.1737  165.4953 C.ar    1  UNL1        0.0193
      5 C         144.4101  145.2891  164.4924 C.ar    1  UNL1        0.0022
      6 C         143.5750  145.1732  163.2517 C.ar    1  UNL1        0.0085
      7 C         142.7519  143.9420  163.0139 C.ar    1  UNL1        0.0477
      8 C         142.7639  142.8267  164.0168 C.ar    1  UNL1        0.0818
      9 C         141.9407  141.5954  163.7791 C.ar    1  UNL1        0.2676
     10 O         141.1056  141.4796  162.5384 O.2     1  UNL1       -0.2665
     11 N         141.9527  140.4801  164.7820 N.ar    1  UNL1       -0.2613
     12 C         141.1295  139.2488  164.5442 C.ar    1  UNL1        0.0680
     13 C         139.7576  139.1372  165.1403 C.ar    1  UNL1        0.0176
     14 C         138.9345  137.9060  164.9026 C.ar    1  UNL1        0.0015
     15 C         139.4833  136.7864  164.0688 C.ar    1  UNL1        0.0001
     16 C         140.8552  136.8980  163.4727 C.ar    1  UNL1        0.0015
     17 C         141.6783  138.1292  163.7104 C.ar    1  UNL1        0.0176
     18 C         141.9168  143.8262  161.7733 C.1     1  UNL1       -0.0642
     19 C         141.0817  143.7103  160.5326 C.1     1  UNL1       -0.0864
     20 C         140.2467  143.5945  159.2920 C.3     1  UNL1        0.0769
     21 C         139.0842  142.6472  159.2561 C.3     1  UNL1        0.0235
     22 C         137.9402  142.8274  160.2093 C.3     1  UNL1        0.0863
     23 C         137.9605  142.1419  161.5435 C.2     1  UNL1        0.2257
     24 O         137.7040  140.6667  161.6327 O.2     1  UNL1       -0.2749
     25 N         138.2374  142.9316  162.7883 N.am    1  UNL1       -0.2795
     26 C         138.5104  144.4050  162.8552 C.3     1  UNL1        0.0935
     27 C         138.7316  144.7707  164.2931 C.3     1  UNL1        0.0233
     28 C         138.5952  143.5233  165.1148 C.3     1  UNL1        0.0233
     29 C         138.2898  142.3867  164.1848 C.3     1  UNL1        0.0935
     30 C         142.7997  139.4805  167.0255 C.3     1  UNL1        0.1282
     31 C         144.7935  138.3535  165.7990 C.3     1  UNL1        0.0022
     32 C         143.6937  138.2942  166.8173 C.3     1  UNL1        0.0273
     33 N         141.9175  139.5514  168.2366 N.pl3   1  UNL1       -0.3129
     34 H         141.2866  138.8206  168.4295 H       1  UNL1        0.1486
     35 C         141.9966  140.7356  169.1538 C.ar    1  UNL1        0.1440
     36 N         143.2998  141.4547  169.3395 N.ar    1  UNL1       -0.1985
     37 C         143.3789  142.6390  170.2567 C.ar    1  UNL1        0.2160
     38 N         144.6821  143.3581  170.4424 N.pl3   1  UNL1       -0.3274
     39 N         142.1548  143.1042  170.9881 N.ar    1  UNL1       -0.1987
     40 C         140.8515  142.3851  170.8024 C.ar    1  UNL1        0.1407
     41 N         139.6273  142.8503  171.5339 N.pl3   1  UNL1       -0.3419
     42 C         140.7724  141.2008  169.8852 C.ar    1  UNL1        0.1308
     43 H         145.4856  143.0528  169.9623 H       1  UNL1        0.1452
     44 H         144.7340  144.1354  171.0443 H       1  UNL1        0.1452
     45 H         139.6792  143.6276  172.1358 H       1  UNL1        0.1437
     46 H         138.7720  142.3783  171.4120 H       1  UNL1        0.1437
     47 C         139.4692  140.4818  169.6995 C.1     1  UNL1        0.1061
     48 N         138.1659  139.7627  169.5138 N.1     1  UNL1       -0.1906
@<TRIPOS>BOND
     1    31    32    1
     2    30    32    1
     3    30    33    1
     4    33    35    1
     5    35    36   ar
     6    36    37   ar
     7    37    38    1
     8    37    39   ar
     9    39    40   ar
    10    40    41    1
    11    40    42   ar
    12    42    47    1
    13    47    48    3
    14    30     1    1
    15     1     2   ar
    16     2     3   ar
    17     3     4   ar
    18     4     5   ar
    19     5     6   ar
    20     6     7   ar
    21     7    18    1
    22    18    19    3
    23    19    20    1
    24    20    21    1
    25    21    22    1
    26    22    23    1
    27    23    24    2
    28    23    25   am
    29    25    26    1
    30    26    27    1
    31    27    28    1
    32    28    29    1
    33     7     8   ar
    34     8     9   ar
    35     9    10    2
    36     9    11   ar
    37    11    12    1
    38    12    13   ar
    39    13    14   ar
    40    14    15   ar
    41    15    16   ar
    42    16    17   ar
    43    42    35   ar
    44    11     1   ar
    45    17    12   ar
    46     8     3   ar
    47    29    25    1
    48    33    34    1
    49    38    43    1
    50    38    44    1
    51    41    45    1
    52    41    46    1
@<TRIPOS>MOLECULE
*****
 48 52 0 0 0
SMALL
GASTEIGER

@<TRIPOS>ATOM
      1 C         140.2891  142.1953  164.3663 C.ar    1  UNL1        0.1443
      2 N         140.0815  143.6652  164.1513 N.ar    1  UNL1       -0.2302
      3 C         140.0951  144.2293  162.7614 C.ar    1  UNL1        0.0878
      4 C         139.8874  145.6991  162.5464 C.ar    1  UNL1        0.0193
      5 C         139.9010  146.2631  161.1566 C.ar    1  UNL1        0.0022
      6 C         140.1222  145.3572  159.9817 C.ar    1  UNL1        0.0085
      7 C         140.3299  143.8873  160.1967 C.ar    1  UNL1        0.0477
      8 C         140.3163  143.3233  161.5865 C.ar    1  UNL1        0.0818
      9 C         140.5240  141.8534  161.8015 C.ar    1  UNL1        0.2676
     10 O         140.7452  140.9474  160.6267 O.2     1  UNL1       -0.2665
     11 N         140.5104  141.2894  163.1914 N.ar    1  UNL1       -0.2613
     12 C         140.7180  139.8194  163.4064 C.ar    1  UNL1        0.0680
     13 C         142.0518  139.3098  163.8661 C.ar    1  UNL1        0.0176
     14 C         142.2595  137.8399  164.0811 C.ar    1  UNL1        0.0015
     15 C         141.1334  136.8797  163.8364 C.ar    1  UNL1        0.0001
     16 C         139.7997  137.3894  163.3768 C.ar    1  UNL1        0.0015
     17 C         139.5920  138.8592  163.1618 C.ar    1  UNL1        0.0176
     18 C         140.5511  142.9814  159.0218 C.1     1  UNL1       -0.0642
     19 C         140.7723  142.0754  157.8469 C.1     1  UNL1       -0.0864
     20 C         140.9936  141.1695  156.6720 C.3     1  UNL1        0.0769
     21 C         142.2607  141.2699  155.8757 C.3     1  UNL1        0.0235
     22 C         143.5789  140.9615  156.5216 C.3     1  UNL1        0.0863
     23 C         143.6321  140.0790  157.7335 C.2     1  UNL1        0.2257
     24 O         143.4338  138.5989  157.5927 O.2     1  UNL1       -0.2749
     25 N         143.8834  140.6768  159.0861 N.am    1  UNL1       -0.2795
     26 C         144.0990  142.1317  159.3809 C.3     1  UNL1        0.0935
     27 C         144.3121  142.2787  160.8583 C.3     1  UNL1        0.0233
     28 C         144.2284  140.9147  161.4767 C.3     1  UNL1        0.0233
     29 C         143.9634  139.9247  160.3814 C.3     1  UNL1        0.0935
     30 C         140.2756  141.6313  165.7562 C.3     1  UNL1        0.1282
     31 C         139.1292  139.5258  166.7573 C.3     1  UNL1        0.0022
     32 C         139.0474  140.9436  166.2745 C.3     1  UNL1        0.0273
     33 N         141.4902  141.7550  166.6276 N.pl3   1  UNL1       -0.3129
     34 H         142.3876  141.6351  166.2411 H       1  UNL1        0.1486
     35 C         141.3374  142.0613  168.0880 C.ar    1  UNL1        0.1440
     36 N         140.6442  143.3188  168.5220 N.ar    1  UNL1       -0.1985
     37 C         140.4914  143.6252  169.9825 C.ar    1  UNL1        0.2160
     38 N         139.7983  144.8826  170.4165 N.pl3   1  UNL1       -0.3274
     39 N         141.0317  142.6741  171.0089 N.ar    1  UNL1       -0.1987
     40 C         141.7249  141.4166  170.5748 C.ar    1  UNL1        0.1407
     41 N         142.2652  140.4655  171.6012 N.pl3   1  UNL1       -0.3419
     42 C         141.8777  141.1102  169.1144 C.ar    1  UNL1        0.1308
     43 H         139.4437  145.5068  169.7428 H       1  UNL1        0.1452
     44 H         139.6980  145.0837  171.3750 H       1  UNL1        0.1452
     45 H         142.1649  140.6665  172.5597 H       1  UNL1        0.1437
     46 H         142.7201  139.6402  171.3163 H       1  UNL1        0.1437
     47 C         142.5708  139.8528  168.6804 C.1     1  UNL1        0.1061
     48 N         143.2640  138.5953  168.2464 N.1     1  UNL1       -0.1906
@<TRIPOS>BOND
     1    31    32    1
     2    30    32    1
     3    30    33    1
     4    33    35    1
     5    35    36   ar
     6    36    37   ar
     7    37    38    1
     8    37    39   ar
     9    39    40   ar
    10    40    41    1
    11    40    42   ar
    12    42    47    1
    13    47    48    3
    14    30     1    1
    15     1     2   ar
    16     2     3   ar
    17     3     4   ar
    18     4     5   ar
    19     5     6   ar
    20     6     7   ar
    21     7    18    1
    22    18    19    3
    23    19    20    1
    24    20    21    1
    25    21    22    1
    26    22    23    1
    27    23    24    2
    28    23    25   am
    29    25    26    1
    30    26    27    1
    31    27    28    1
    32    28    29    1
    33     7     8   ar
    34     8     9   ar
    35     9    10    2
    36     9    11   ar
    37    11    12    1
    38    12    13   ar
    39    13    14   ar
    40    14    15   ar
    41    15    16   ar
    42    16    17   ar
    43    42    35   ar
    44    11     1   ar
    45    17    12   ar
    46     8     3   ar
    47    29    25    1
    48    33    34    1
    49    38    43    1
    50    38    44    1
    51    41    45    1
    52    41    46    1
@<TRIPOS>MOLECULE
*****
 48 52 0 0 0
SMALL
GASTEIGER

@<TRIPOS>ATOM
      1 C         141.1165  142.4142  164.3118 C.ar    1  UNL1        0.1443
      2 N         141.0287  143.8407  163.8566 N.ar    1  UNL1       -0.2302
      3 C         140.6881  144.1530  162.4295 C.ar    1  UNL1        0.0878
      4 C         140.6003  145.5796  161.9743 C.ar    1  UNL1        0.0193
      5 C         140.2597  145.8918  160.5472 C.ar    1  UNL1        0.0022
      6 C         140.0069  144.7775  159.5754 C.ar    1  UNL1        0.0085
      7 C         140.0947  143.3510  160.0306 C.ar    1  UNL1        0.0477
      8 C         140.4353  143.0387  161.4576 C.ar    1  UNL1        0.0818
      9 C         140.5231  141.6121  161.9129 C.ar    1  UNL1        0.2676
     10 O         140.2704  140.4979  160.9411 O.2     1  UNL1       -0.2665
     11 N         140.8637  141.2999  163.3400 N.ar    1  UNL1       -0.2613
     12 C         140.9515  139.8733  163.7952 C.ar    1  UNL1        0.0680
     13 C         142.2605  139.1439  163.7282 C.ar    1  UNL1        0.0176
     14 C         142.3484  137.7174  164.1834 C.ar    1  UNL1        0.0015
     15 C         141.1273  137.0203  164.7057 C.ar    1  UNL1        0.0001
     16 C         139.8183  137.7497  164.7727 C.ar    1  UNL1        0.0015
     17 C         139.7304  139.1762  164.3175 C.ar    1  UNL1        0.0176
     18 C         139.8420  142.2367  159.0588 C.1     1  UNL1       -0.0642
     19 C         139.5892  141.1224  158.0870 C.1     1  UNL1       -0.0864
     20 C         139.3364  140.0081  157.1151 C.3     1  UNL1        0.0769
     21 C         140.4898  139.3133  156.4541 C.3     1  UNL1        0.0235
     22 C         141.8967  139.6668  156.8356 C.3     1  UNL1        0.0863
     23 C         142.5215  139.0502  158.0520 C.2     1  UNL1        0.2257
     24 O         142.5369  137.5590  158.2130 O.2     1  UNL1       -0.2749
     25 N         143.1307  139.9248  159.1074 N.am    1  UNL1       -0.2795
     26 C         143.1898  141.4235  159.0844 C.3     1  UNL1        0.0935
     27 C         143.8834  141.8793  160.3338 C.3     1  UNL1        0.0233
     28 C         144.2531  140.6623  161.1291 C.3     1  UNL1        0.0233
     29 C         143.7878  139.4544  160.3710 C.3     1  UNL1        0.0935
     30 C         141.4571  142.1019  165.7389 C.3     1  UNL1        0.1282
     31 C         143.9927  142.0926  165.1728 C.3     1  UNL1        0.0022
     32 C         142.8717  141.7791  166.1189 C.3     1  UNL1        0.0273
     33 N         140.3830  142.1125  166.7859 N.pl3   1  UNL1       -0.3129
     34 H         139.4429  142.2448  166.5253 H       1  UNL1        0.1486
     35 C         140.7412  141.9214  168.2298 C.ar    1  UNL1        0.1440
     36 N         141.7269  142.8419  168.8861 N.ar    1  UNL1       -0.1985
     37 C         142.0852  142.6509  170.3302 C.ar    1  UNL1        0.2160
     38 N         143.0710  143.5714  170.9865 N.pl3   1  UNL1       -0.3274
     39 N         141.4577  141.5392  171.1179 N.ar    1  UNL1       -0.1987
     40 C         140.4719  140.6186  170.4615 C.ar    1  UNL1        0.1407
     41 N         139.8444  139.5069  171.2491 N.pl3   1  UNL1       -0.3419
     42 C         140.1137  140.8097  169.0175 C.ar    1  UNL1        0.1308
     43 H         143.4828  144.3011  170.4695 H       1  UNL1        0.1452
     44 H         143.3061  143.4460  171.9343 H       1  UNL1        0.1452
     45 H         140.0795  139.3815  172.1969 H       1  UNL1        0.1437
     46 H         139.1974  138.9027  170.8183 H       1  UNL1        0.1437
     47 C         139.1280  139.8891  168.3612 C.1     1  UNL1        0.1061
     48 N         138.1421  138.9684  167.7049 N.1     1  UNL1       -0.1906
@<TRIPOS>BOND
     1    31    32    1
     2    30    32    1
     3    30    33    1
     4    33    35    1
     5    35    36   ar
     6    36    37   ar
     7    37    38    1
     8    37    39   ar
     9    39    40   ar
    10    40    41    1
    11    40    42   ar
    12    42    47    1
    13    47    48    3
    14    30     1    1
    15     1     2   ar
    16     2     3   ar
    17     3     4   ar
    18     4     5   ar
    19     5     6   ar
    20     6     7   ar
    21     7    18    1
    22    18    19    3
    23    19    20    1
    24    20    21    1
    25    21    22    1
    26    22    23    1
    27    23    24    2
    28    23    25   am
    29    25    26    1
    30    26    27    1
    31    27    28    1
    32    28    29    1
    33     7     8   ar
    34     8     9   ar
    35     9    10    2
    36     9    11   ar
    37    11    12    1
    38    12    13   ar
    39    13    14   ar
    40    14    15   ar
    41    15    16   ar
    42    16    17   ar
    43    42    35   ar
    44    11     1   ar
    45    17    12   ar
    46     8     3   ar
    47    29    25    1
    48    33    34    1
    49    38    43    1
    50    38    44    1
    51    41    45    1
    52    41    46    1
@<TRIPOS>MOLECULE
*****
 48 52 0 0 0
SMALL
GASTEIGER

@<TRIPOS>ATOM
      1 C         141.7049  140.7098  164.3076 C.ar    1  UNL1        0.1443
      2 N         142.6538  139.6346  163.8677 N.ar    1  UNL1       -0.2302
      3 C         142.6285  139.1461  162.4497 C.ar    1  UNL1        0.0878
      4 C         143.5775  138.0710  162.0098 C.ar    1  UNL1        0.0193
      5 C         143.5522  137.5825  160.5918 C.ar    1  UNL1        0.0022
      6 C         142.5779  138.1692  159.6137 C.ar    1  UNL1        0.0085
      7 C         141.6290  139.2443  160.0536 C.ar    1  UNL1        0.0477
      8 C         141.6543  139.7328  161.4716 C.ar    1  UNL1        0.0818
      9 C         140.7053  140.8080  161.9115 C.ar    1  UNL1        0.2676
     10 O         139.7311  141.3947  160.9334 O.2     1  UNL1       -0.2665
     11 N         140.7306  141.2964  163.3295 N.ar    1  UNL1       -0.2613
     12 C         139.7817  142.3716  163.7695 C.ar    1  UNL1        0.0680
     13 C         140.2333  143.8016  163.8062 C.ar    1  UNL1        0.0176
     14 C         139.2845  144.8767  164.2461 C.ar    1  UNL1        0.0015
     15 C         137.8839  144.5220  164.6494 C.ar    1  UNL1        0.0001
     16 C         137.4323  143.0921  164.6126 C.ar    1  UNL1        0.0015
     17 C         138.3812  142.0169  164.1727 C.ar    1  UNL1        0.0176
     18 C         140.6548  139.8310  159.0755 C.1     1  UNL1       -0.0642
     19 C         139.6805  140.4177  158.0974 C.1     1  UNL1       -0.0864
     20 C         138.7063  141.0044  157.1193 C.3     1  UNL1        0.0769
     21 C         138.1905  140.1717  155.9833 C.3     1  UNL1        0.0235
     22 C         139.1423  139.3585  155.1570 C.3     1  UNL1        0.0863
     23 C         139.5327  137.9801  155.6016 C.2     1  UNL1        0.2257
     24 O         138.4797  136.9315  155.8054 O.2     1  UNL1       -0.2749
     25 N         140.9760  137.6503  155.8424 N.am    1  UNL1       -0.2795
     26 C         142.1339  138.5901  155.6811 C.3     1  UNL1        0.0935
     27 C         143.3884  137.8435  156.0258 C.3     1  UNL1        0.0233
     28 C         143.0058  136.4423  156.4002 C.3     1  UNL1        0.0233
     29 C         141.5149  136.3229  156.2868 C.3     1  UNL1        0.0935
     30 C         141.7302  141.1983  165.7257 C.3     1  UNL1        0.1282
     31 C         143.6485  142.8439  165.1246 C.3     1  UNL1        0.0022
     32 C         142.7003  142.2670  166.1335 C.3     1  UNL1        0.0273
     33 N         140.7852  140.6179  166.7358 N.pl3   1  UNL1       -0.3129
     34 H         139.9989  140.1062  166.4372 H       1  UNL1        0.1486
     35 C         141.0383  140.8172  168.2007 C.ar    1  UNL1        0.1440
     36 N         140.2050  141.7910  168.9800 N.ar    1  UNL1       -0.1985
     37 C         140.4580  141.9904  170.4451 C.ar    1  UNL1        0.2160
     38 N         139.6248  142.9642  171.2244 N.pl3   1  UNL1       -0.3274
     39 N         141.5443  141.2159  171.1308 N.ar    1  UNL1       -0.1987
     40 C         142.3776  140.2421  170.3514 C.ar    1  UNL1        0.1407
     41 N         143.4638  139.4676  171.0371 N.pl3   1  UNL1       -0.3419
     42 C         142.1245  140.0427  168.8864 C.ar    1  UNL1        0.1308
     43 H         138.9118  143.4725  170.7743 H       1  UNL1        0.1452
     44 H         139.7908  143.0950  172.1859 H       1  UNL1        0.1452
     45 H         143.6299  139.5984  171.9986 H       1  UNL1        0.1437
     46 H         144.0107  138.8284  170.5256 H       1  UNL1        0.1437
     47 C         142.9578  139.0689  168.1071 C.1     1  UNL1        0.1061
     48 N         143.7911  138.0951  167.3278 N.1     1  UNL1       -0.1906
@<TRIPOS>BOND
     1    31    32    1
     2    30    32    1
     3    30    33    1
     4    33    35    1
     5    35    36   ar
     6    36    37   ar
     7    37    38    1
     8    37    39   ar
     9    39    40   ar
    10    40    41    1
    11    40    42   ar
    12    42    47    1
    13    47    48    3
    14    30     1    1
    15     1     2   ar
    16     2     3   ar
    17     3     4   ar
    18     4     5   ar
    19     5     6   ar
    20     6     7   ar
    21     7    18    1
    22    18    19    3
    23    19    20    1
    24    20    21    1
    25    21    22    1
    26    22    23    1
    27    23    24    2
    28    23    25   am
    29    25    26    1
    30    26    27    1
    31    27    28    1
    32    28    29    1
    33     7     8   ar
    34     8     9   ar
    35     9    10    2
    36     9    11   ar
    37    11    12    1
    38    12    13   ar
    39    13    14   ar
    40    14    15   ar
    41    15    16   ar
    42    16    17   ar
    43    42    35   ar
    44    11     1   ar
    45    17    12   ar
    46     8     3   ar
    47    29    25    1
    48    33    34    1
    49    38    43    1
    50    38    44    1
    51    41    45    1
    52    41    46    1
@<TRIPOS>MOLECULE
*****
 48 52 0 0 0
SMALL
GASTEIGER

@<TRIPOS>ATOM
      1 C         139.6839  141.5270  161.3048 C.ar    1  UNL1        0.1443
      2 N         138.6427  142.5147  161.7408 N.ar    1  UNL1       -0.2302
      3 C         138.7174  143.1294  163.1071 C.ar    1  UNL1        0.0878
      4 C         137.6762  144.1171  163.5431 C.ar    1  UNL1        0.0193
      5 C         137.7509  144.7317  164.9093 C.ar    1  UNL1        0.0022
      6 C         138.8669  144.3586  165.8395 C.ar    1  UNL1        0.0085
      7 C         139.9082  143.3709  165.4035 C.ar    1  UNL1        0.0477
      8 C         139.8334  142.7563  164.0373 C.ar    1  UNL1        0.0818
      9 C         140.8747  141.7685  163.6012 C.ar    1  UNL1        0.2676
     10 O         141.9907  141.3954  164.5314 O.2     1  UNL1       -0.2665
     11 N         140.7999  141.1539  162.2350 N.ar    1  UNL1       -0.2613
     12 C         141.8412  140.1661  161.7989 C.ar    1  UNL1        0.0680
     13 C         141.5306  138.6986  161.8015 C.ar    1  UNL1        0.0176
     14 C         142.5718  137.7109  161.3655 C.ar    1  UNL1        0.0015
     15 C         143.9236  138.1906  160.9268 C.ar    1  UNL1        0.0001
     16 C         144.2342  139.6581  160.9242 C.ar    1  UNL1        0.0015
     17 C         143.1930  140.6458  161.3602 C.ar    1  UNL1        0.0176
     18 C         141.0242  142.9978  166.3337 C.1     1  UNL1       -0.0642
     19 C         142.1402  142.6247  167.2639 C.1     1  UNL1       -0.0864
     20 C         143.2562  142.2515  168.1941 C.3     1  UNL1        0.0769
     21 C         143.0393  141.2008  169.2424 C.3     1  UNL1        0.0235
     22 C         142.0839  140.0729  168.9873 C.3     1  UNL1        0.0863
     23 C         142.1459  139.3154  167.6941 C.2     1  UNL1        0.2257
     24 O         143.4191  138.6379  167.2820 O.2     1  UNL1       -0.2749
     25 N         140.9346  139.2355  166.8129 N.am    1  UNL1       -0.2795
     26 C         139.5990  139.8587  167.0914 C.3     1  UNL1        0.0935
     27 C         138.6852  139.5267  165.9491 C.3     1  UNL1        0.0233
     28 C         139.4561  138.6982  164.9646 C.3     1  UNL1        0.0233
     29 C         140.8463  138.5182  165.4985 C.3     1  UNL1        0.0935
     30 C         139.6092  140.9124  159.9385 C.3     1  UNL1        0.1282
     31 C         138.0341  139.0526  160.8384 C.3     1  UNL1        0.0022
     32 C         138.8873  139.6127  159.7392 C.3     1  UNL1        0.0273
     33 N         140.2564  141.5974  158.7715 N.pl3   1  UNL1       -0.3129
     34 H         139.7995  142.3466  158.3252 H       1  UNL1        0.1486
     35 C         141.5997  141.1410  158.2845 C.ar    1  UNL1        0.1440
     36 N         141.8201  139.6993  157.9339 N.ar    1  UNL1       -0.1985
     37 C         143.1635  139.2428  157.4469 C.ar    1  UNL1        0.2160
     38 N         143.3840  137.8012  157.0963 N.pl3   1  UNL1       -0.3274
     39 N         144.2863  140.2281  157.3104 N.ar    1  UNL1       -0.1987
     40 C         144.0657  141.6698  157.6610 C.ar    1  UNL1        0.1407
     41 N         145.1885  142.6550  157.5246 N.pl3   1  UNL1       -0.3419
     42 C         142.7225  142.1262  158.1480 C.ar    1  UNL1        0.1308
     43 H         142.6470  137.1545  157.1859 H       1  UNL1        0.1452
     44 H         144.2656  137.5016  156.7767 H       1  UNL1        0.1452
     45 H         146.0702  142.3555  157.2049 H       1  UNL1        0.1437
     46 H         145.0438  143.6013  157.7547 H       1  UNL1        0.1437
     47 C         142.5020  143.5679  158.4986 C.1     1  UNL1        0.1061
     48 N         142.2815  145.0097  158.8491 N.1     1  UNL1       -0.1906
@<TRIPOS>BOND
     1    31    32    1
     2    30    32    1
     3    30    33    1
     4    33    35    1
     5    35    36   ar
     6    36    37   ar
     7    37    38    1
     8    37    39   ar
     9    39    40   ar
    10    40    41    1
    11    40    42   ar
    12    42    47    1
    13    47    48    3
    14    30     1    1
    15     1     2   ar
    16     2     3   ar
    17     3     4   ar
    18     4     5   ar
    19     5     6   ar
    20     6     7   ar
    21     7    18    1
    22    18    19    3
    23    19    20    1
    24    20    21    1
    25    21    22    1
    26    22    23    1
    27    23    24    2
    28    23    25   am
    29    25    26    1
    30    26    27    1
    31    27    28    1
    32    28    29    1
    33     7     8   ar
    34     8     9   ar
    35     9    10    2
    36     9    11   ar
    37    11    12    1
    38    12    13   ar
    39    13    14   ar
    40    14    15   ar
    41    15    16   ar
    42    16    17   ar
    43    42    35   ar
    44    11     1   ar
    45    17    12   ar
    46     8     3   ar
    47    29    25    1
    48    33    34    1
    49    38    43    1
    50    38    44    1
    51    41    45    1
    52    41    46    1
@<TRIPOS>MOLECULE
*****
 48 52 0 0 0
SMALL
GASTEIGER

@<TRIPOS>ATOM
      1 C         139.9869  141.7809  164.2685 C.ar    1  UNL1        0.1443
      2 N         138.8107  140.9864  163.7835 N.ar    1  UNL1       -0.2302
      3 C         138.6355  140.7249  162.3169 C.ar    1  UNL1        0.0878
      4 C         137.4592  139.9303  161.8320 C.ar    1  UNL1        0.0193
      5 C         137.2841  139.6689  160.3654 C.ar    1  UNL1        0.0022
      6 C         138.2852  140.2019  159.3837 C.ar    1  UNL1        0.0085
      7 C         139.4614  140.9965  159.8686 C.ar    1  UNL1        0.0477
      8 C         139.6365  141.2579  161.3352 C.ar    1  UNL1        0.0818
      9 C         140.8128  142.0525  161.8202 C.ar    1  UNL1        0.2676
     10 O         141.8139  142.5855  160.8385 O.2     1  UNL1       -0.2665
     11 N         140.9880  142.3139  163.2868 N.ar    1  UNL1       -0.2613
     12 C         142.1643  143.1085  163.7718 C.ar    1  UNL1        0.0680
     13 C         142.2084  144.5919  163.5540 C.ar    1  UNL1        0.0176
     14 C         143.3846  145.3865  164.0389 C.ar    1  UNL1        0.0015
     15 C         144.5167  144.6976  164.7416 C.ar    1  UNL1        0.0001
     16 C         144.4725  143.2141  164.9594 C.ar    1  UNL1        0.0015
     17 C         143.2963  142.4196  164.4744 C.ar    1  UNL1        0.0176
     18 C         140.4625  141.5295  158.8870 C.1     1  UNL1       -0.0642
     19 C         141.4635  142.0626  157.9053 C.1     1  UNL1       -0.0864
     20 C         142.4646  142.5956  156.9236 C.3     1  UNL1        0.0769
     21 C         143.9265  142.3238  157.1208 C.3     1  UNL1        0.0235
     22 C         144.3987  141.6242  158.3608 C.3     1  UNL1        0.0863
     23 C         144.0116  140.1965  158.6099 C.2     1  UNL1        0.2257
     24 O         143.6992  139.2917  157.4551 O.2     1  UNL1       -0.2749
     25 N         143.9369  139.6738  160.0139 N.am    1  UNL1       -0.2795
     26 C         144.2197  140.4560  161.2622 C.3     1  UNL1        0.0935
     27 C         144.0239  139.5427  162.4359 C.3     1  UNL1        0.0233
     28 C         143.6200  138.1961  161.9130 C.3     1  UNL1        0.0233
     29 C         143.5662  138.2771  160.4162 C.3     1  UNL1        0.0935
     30 C         140.1621  142.0424  165.7351 C.3     1  UNL1        0.1282
     31 C         139.0210  144.3599  165.4582 C.3     1  UNL1        0.0022
     32 C         139.6814  143.3329  166.3295 C.3     1  UNL1        0.0273
     33 N         140.8180  141.0132  166.6073 N.pl3   1  UNL1       -0.3129
     34 H         141.4194  140.3425  166.2102 H       1  UNL1        0.1486
     35 C         140.5577  141.0061  168.0845 C.ar    1  UNL1        0.1440
     36 N         141.4636  141.7637  169.0093 N.ar    1  UNL1       -0.1985
     37 C         141.2034  141.7566  170.4866 C.ar    1  UNL1        0.2160
     38 N         142.1092  142.5143  171.4114 N.pl3   1  UNL1       -0.3274
     39 N         140.0372  140.9918  171.0390 N.ar    1  UNL1       -0.1987
     40 C         139.1313  140.2341  170.1141 C.ar    1  UNL1        0.1407
     41 N         137.9651  139.4693  170.6664 N.pl3   1  UNL1       -0.3419
     42 C         139.3916  140.2413  168.6369 C.ar    1  UNL1        0.1308
     43 H         142.8746  143.0162  171.0488 H       1  UNL1        0.1452
     44 H         141.9384  142.5096  172.3809 H       1  UNL1        0.1452
     45 H         137.7943  139.4647  171.6360 H       1  UNL1        0.1437
     46 H         137.3705  138.9721  170.0594 H       1  UNL1        0.1437
     47 C         138.4857  139.4837  167.7121 C.1     1  UNL1        0.1061
     48 N         137.5798  138.7260  166.7872 N.1     1  UNL1       -0.1906
@<TRIPOS>BOND
     1    31    32    1
     2    30    32    1
     3    30    33    1
     4    33    35    1
     5    35    36   ar
     6    36    37   ar
     7    37    38    1
     8    37    39   ar
     9    39    40   ar
    10    40    41    1
    11    40    42   ar
    12    42    47    1
    13    47    48    3
    14    30     1    1
    15     1     2   ar
    16     2     3   ar
    17     3     4   ar
    18     4     5   ar
    19     5     6   ar
    20     6     7   ar
    21     7    18    1
    22    18    19    3
    23    19    20    1
    24    20    21    1
    25    21    22    1
    26    22    23    1
    27    23    24    2
    28    23    25   am
    29    25    26    1
    30    26    27    1
    31    27    28    1
    32    28    29    1
    33     7     8   ar
    34     8     9   ar
    35     9    10    2
    36     9    11   ar
    37    11    12    1
    38    12    13   ar
    39    13    14   ar
    40    14    15   ar
    41    15    16   ar
    42    16    17   ar
    43    42    35   ar
    44    11     1   ar
    45    17    12   ar
    46     8     3   ar
    47    29    25    1
    48    33    34    1
    49    38    43    1
    50    38    44    1
    51    41    45    1
    52    41    46    1
@<TRIPOS>MOLECULE
*****
 48 52 0 0 0
SMALL
GASTEIGER

@<TRIPOS>ATOM
      1 C         142.0267  144.3221  161.9773 C.ar    1  UNL1        0.1443
      2 N         141.2516  145.2073  161.0469 N.ar    1  UNL1       -0.2302
      3 C         141.0604  144.8051  159.6145 C.ar    1  UNL1        0.0878
      4 C         140.2853  145.6903  158.6841 C.ar    1  UNL1        0.0193
      5 C         140.0941  145.2881  157.2517 C.ar    1  UNL1        0.0022
      6 C         140.6780  144.0008  156.7498 C.ar    1  UNL1        0.0085
      7 C         141.4530  143.1157  157.6802 C.ar    1  UNL1        0.0477
      8 C         141.6442  143.5178  159.1125 C.ar    1  UNL1        0.0818
      9 C         142.4193  142.6326  160.0430 C.ar    1  UNL1        0.2676
     10 O         143.0032  141.3453  159.5411 O.2     1  UNL1       -0.2665
     11 N         142.6105  143.0348  161.4754 N.ar    1  UNL1       -0.2613
     12 C         143.3856  142.1496  162.4059 C.ar    1  UNL1        0.0680
     13 C         142.6632  141.1850  163.2990 C.ar    1  UNL1        0.0176
     14 C         143.4382  140.2998  164.2295 C.ar    1  UNL1        0.0015
     15 C         144.9356  140.3793  164.2668 C.ar    1  UNL1        0.0001
     16 C         145.6580  141.3439  163.3737 C.ar    1  UNL1        0.0015
     17 C         144.8830  142.2291  162.4432 C.ar    1  UNL1        0.0176
     18 C         142.0369  141.8284  157.1783 C.1     1  UNL1       -0.0642
     19 C         142.6207  140.5410  156.6763 C.1     1  UNL1       -0.0864
     20 C         143.2046  139.2537  156.1744 C.3     1  UNL1        0.0769
     21 C         142.9245  137.9704  156.8986 C.3     1  UNL1        0.0235
     22 C         142.6703  137.9835  158.3769 C.3     1  UNL1        0.0863
     23 C         141.2783  138.1888  158.8967 C.2     1  UNL1        0.2257
     24 O         140.1627  138.5097  157.9468 O.2     1  UNL1       -0.2749
     25 N         141.0020  138.0732  160.3665 N.am    1  UNL1       -0.2795
     26 C         142.0108  137.7595  161.4313 C.3     1  UNL1        0.0935
     27 C         141.3006  137.7434  162.7525 C.3     1  UNL1        0.0233
     28 C         139.8529  138.0472  162.5042 C.3     1  UNL1        0.0233
     29 C         139.6683  138.2510  161.0296 C.3     1  UNL1        0.0935
     30 C         142.2179  144.7242  163.4098 C.3     1  UNL1        0.1282
     31 C         144.1872  144.4297  165.0786 C.3     1  UNL1        0.0022
     32 C         143.5765  145.1287  163.9002 C.3     1  UNL1        0.0273
     33 N         141.0505  144.7219  164.3517 N.pl3   1  UNL1       -0.3129
     34 H         140.6137  145.5696  164.5963 H       1  UNL1        0.1486
     35 C         140.5486  143.4280  164.9208 C.ar    1  UNL1        0.1440
     36 N         141.2287  142.8181  166.1105 N.ar    1  UNL1       -0.1985
     37 C         140.7269  141.5241  166.6797 C.ar    1  UNL1        0.2160
     38 N         141.4070  140.9142  167.8693 N.pl3   1  UNL1       -0.3274
     39 N         139.5449  140.8402  166.0591 N.ar    1  UNL1       -0.1987
     40 C         138.8647  141.4502  164.8694 C.ar    1  UNL1        0.1407
     41 N         137.6827  140.7662  164.2488 N.pl3   1  UNL1       -0.3419
     42 C         139.3666  142.7440  164.3002 C.ar    1  UNL1        0.1308
     43 H         142.1828  141.3631  168.2766 H       1  UNL1        0.1452
     44 H         141.0776  140.0650  168.2429 H       1  UNL1        0.1452
     45 H         137.3533  139.9170  164.6224 H       1  UNL1        0.1437
     46 H         137.2363  141.1665  163.4680 H       1  UNL1        0.1437
     47 C         138.6865  143.3540  163.1106 C.1     1  UNL1        0.1061
     48 N         138.0063  143.9639  161.9208 N.1     1  UNL1       -0.1906
@<TRIPOS>BOND
     1    31    32    1
     2    30    32    1
     3    30    33    1
     4    33    35    1
     5    35    36   ar
     6    36    37   ar
     7    37    38    1
     8    37    39   ar
     9    39    40   ar
    10    40    41    1
    11    40    42   ar
    12    42    47    1
    13    47    48    3
    14    30     1    1
    15     1     2   ar
    16     2     3   ar
    17     3     4   ar
    18     4     5   ar
    19     5     6   ar
    20     6     7   ar
    21     7    18    1
    22    18    19    3
    23    19    20    1
    24    20    21    1
    25    21    22    1
    26    22    23    1
    27    23    24    2
    28    23    25   am
    29    25    26    1
    30    26    27    1
    31    27    28    1
    32    28    29    1
    33     7     8   ar
    34     8     9   ar
    35     9    10    2
    36     9    11   ar
    37    11    12    1
    38    12    13   ar
    39    13    14   ar
    40    14    15   ar
    41    15    16   ar
    42    16    17   ar
    43    42    35   ar
    44    11     1   ar
    45    17    12   ar
    46     8     3   ar
    47    29    25    1
    48    33    34    1
    49    38    43    1
    50    38    44    1
    51    41    45    1
    52    41    46    1
