@<TRIPOS>MOLECULE
*****
 33 36 0 0 0
SMALL
GASTEIGER

@<TRIPOS>ATOM
      1 C         139.8942  141.9779  165.9766 C.ar    1  UNL1       -0.0019
      2 C         140.3892  142.7340  167.1738 C.ar    1  UNL1       -0.0003
      3 C         140.3661  142.0913  168.5289 C.ar    1  UNL1        0.0038
      4 C         139.8481  140.6925  168.6869 C.ar    1  UNL1        0.0712
      5 C         139.3531  139.9363  167.4897 C.ar    1  UNL1        0.0016
      6 C         139.3762  140.5791  166.1345 C.ar    1  UNL1        0.0040
      7 C         139.8250  140.0498  170.0420 C.3     1  UNL1        0.4186
      8 F         139.8019  139.4072  171.3971 F       1  UNL1       -0.1659
      9 F         141.2878  139.7410  169.9205 F       1  UNL1       -0.1659
     10 F         138.3622  140.3586  170.1635 F       1  UNL1       -0.1659
     11 C         140.9832  143.6205  164.2836 C.2     1  UNL1        0.0579
     12 C         139.9173  142.6205  164.6214 C.2     1  UNL1        0.0044
     13 C         143.3811  142.3962  159.5932 C.3     1  UNL1        0.1103
     14 C         143.3580  141.7536  160.9483 C.3     1  UNL1        0.0460
     15 C         142.5664  142.3759  162.0600 C.3     1  UNL1        0.0957
     16 N         141.7979  143.6409  161.8167 N.am    1  UNL1       -0.2759
     17 C         141.0062  144.2632  162.9285 C.2     1  UNL1        0.2492
     18 O         140.2377  145.5282  162.6851 O.2     1  UNL1       -0.2699
     19 C         141.8210  144.2835  160.4615 C.3     1  UNL1        0.0957
     20 C         142.6126  143.6612  159.3498 C.3     1  UNL1        0.0460
     21 C         146.8847  141.6936  155.7058 C.3     1  UNL1        0.0756
     22 C         145.7831  141.4509  156.6945 C.ar    1  UNL1        0.1609
     23 N         144.9985  140.1815  156.8463 N.ar    1  UNL1       -0.2076
     24 C         144.0032  140.3812  157.9507 C.ar    1  UNL1        0.1968
     25 N         144.1727  141.7739  158.4813 N.ar    1  UNL1       -0.2323
     26 N         145.2727  142.4350  157.7050 N.ar    1  UNL1       -0.1531
     27 C         138.8813  139.8229  164.9373 C.3     1  UNL1        0.1776
     28 N         139.8365  139.0053  164.1191 N.ar    1  UNL1       -0.1467
     29 N         139.5424  137.6775  163.4863 N.ar    1  UNL1       -0.0451
     30 N         140.7775  137.2235  162.7662 N.ar    1  UNL1       -0.1123
     31 C         141.8349  138.2708  162.9541 C.ar    1  UNL1        0.1838
     32 C         143.2291  138.2249  162.4026 C.3     1  UNL1        0.0776
     33 N         141.2533  139.3720  163.7902 N.ar    1  UNL1       -0.1339
@<TRIPOS>BOND
     1    21    22    1
     2    22    23   ar
     3    23    24   ar
     4    24    25   ar
     5    25    13    1
     6    13    14    1
     7    14    15    1
     8    15    16    1
     9    16    17   am
    10    17    18    2
    11    17    11    1
    12    11    12    2
    13    12     1    1
    14     1     2   ar
    15     2     3   ar
    16     3     4   ar
    17     4     7    1
    18     7     8    1
    19     7     9    1
    20     7    10    1
    21     4     5   ar
    22     5     6   ar
    23     6    27    1
    24    27    28    1
    25    28    29   ar
    26    29    30   ar
    27    30    31   ar
    28    31    32    1
    29    31    33   ar
    30    16    19    1
    31    19    20    1
    32    25    26   ar
    33    26    22   ar
    34    20    13    1
    35     6     1   ar
    36    33    28   ar
@<TRIPOS>MOLECULE
*****
 33 36 0 0 0
SMALL
GASTEIGER

@<TRIPOS>ATOM
      1 C         142.0541  142.4848  165.7189 C.ar    1  UNL1       -0.0019
      2 C         142.7995  142.0614  166.9498 C.ar    1  UNL1       -0.0003
      3 C         142.1628  142.2084  168.2999 C.ar    1  UNL1        0.0038
      4 C         140.7806  142.7789  168.4193 C.ar    1  UNL1        0.0712
      5 C         140.0351  143.2022  167.1884 C.ar    1  UNL1        0.0016
      6 C         140.6719  143.0552  165.8382 C.ar    1  UNL1        0.0040
      7 C         140.1439  142.9259  169.7694 C.3     1  UNL1        0.4186
      8 F         139.5072  143.0729  171.1196 F       1  UNL1       -0.1659
      9 F         140.0054  141.4355  169.8664 F       1  UNL1       -0.1659
     10 F         140.2824  144.4163  169.6724 F       1  UNL1       -0.1659
     11 C         143.5544  141.1476  164.0724 C.2     1  UNL1        0.0579
     12 C         142.6907  142.3377  164.3688 C.2     1  UNL1        0.0044
     13 C         141.9571  138.9598  159.3914 C.3     1  UNL1        0.1103
     14 C         141.3205  139.1068  160.7416 C.3     1  UNL1        0.0460
     15 C         142.0651  139.7871  161.8518 C.3     1  UNL1        0.0957
     16 N         143.4465  140.3203  161.6119 N.am    1  UNL1       -0.2759
     17 C         144.1911  141.0006  162.7222 C.2     1  UNL1        0.2492
     18 O         145.5725  141.5338  162.4823 O.2     1  UNL1       -0.2699
     19 C         144.0831  140.1733  160.2618 C.3     1  UNL1        0.0957
     20 C         143.3385  139.4930  159.1515 C.3     1  UNL1        0.0460
     21 C         140.8497  135.9796  155.1755 C.3     1  UNL1        0.0756
     22 C         140.7035  136.9097  156.3433 C.ar    1  UNL1        0.1609
     23 N         139.4297  137.5557  156.8018 N.ar    1  UNL1       -0.2076
     24 C         139.7443  138.4023  157.9994 C.ar    1  UNL1        0.1968
     25 N         141.2125  138.2795  158.2811 N.ar    1  UNL1       -0.2323
     26 N         141.8053  137.3570  157.2576 N.ar    1  UNL1       -0.1531
     27 C         139.9265  143.4785  164.6073 C.3     1  UNL1        0.1776
     28 N         139.0552  142.4955  163.8829 N.ar    1  UNL1       -0.1467
     29 N         137.7663  142.8088  163.1823 N.ar    1  UNL1       -0.0451
     30 N         137.2344  141.5336  162.5983 N.ar    1  UNL1       -0.1123
     31 C         138.1945  140.4323  162.9380 C.ar    1  UNL1        0.1838
     32 C         138.0540  138.9898  162.5515 C.3     1  UNL1        0.0776
     33 N         139.3198  141.0268  163.7319 N.ar    1  UNL1       -0.1339
@<TRIPOS>BOND
     1    21    22    1
     2    22    23   ar
     3    23    24   ar
     4    24    25   ar
     5    25    13    1
     6    13    14    1
     7    14    15    1
     8    15    16    1
     9    16    17   am
    10    17    18    2
    11    17    11    1
    12    11    12    2
    13    12     1    1
    14     1     2   ar
    15     2     3   ar
    16     3     4   ar
    17     4     7    1
    18     7     8    1
    19     7     9    1
    20     7    10    1
    21     4     5   ar
    22     5     6   ar
    23     6    27    1
    24    27    28    1
    25    28    29   ar
    26    29    30   ar
    27    30    31   ar
    28    31    32    1
    29    31    33   ar
    30    16    19    1
    31    19    20    1
    32    25    26   ar
    33    26    22   ar
    34    20    13    1
    35     6     1   ar
    36    33    28   ar
@<TRIPOS>MOLECULE
*****
 33 36 0 0 0
SMALL
GASTEIGER

@<TRIPOS>ATOM
      1 C         141.1949  140.3265  166.5768 C.ar    1  UNL1       -0.0019
      2 C         142.2012  139.7314  167.5165 C.ar    1  UNL1       -0.0003
      3 C         142.7609  140.5568  168.6370 C.ar    1  UNL1        0.0038
      4 C         142.3142  141.9773  168.8177 C.ar    1  UNL1        0.0712
      5 C         141.3078  142.5724  167.8780 C.ar    1  UNL1        0.0016
      6 C         140.7482  141.7469  166.7575 C.ar    1  UNL1        0.0040
      7 C         142.8738  142.8027  169.9382 C.3     1  UNL1        0.4186
      8 F         143.4335  143.6281  171.0587 F       1  UNL1       -0.1659
      9 F         141.6423  143.6589  169.9226 F       1  UNL1       -0.1659
     10 F         144.1053  141.9465  169.9538 F       1  UNL1       -0.1659
     11 C         141.4304  139.3050  164.1995 C.2     1  UNL1        0.0579
     12 C         140.6352  139.5011  165.4563 C.2     1  UNL1        0.0044
     13 C         138.8140  140.4864  159.6160 C.3     1  UNL1        0.1103
     14 C         139.3737  141.3118  160.7365 C.3     1  UNL1        0.0460
     15 C         140.0592  140.6428  161.8908 C.3     1  UNL1        0.0957
     16 N         140.1851  139.1485  161.9247 N.am    1  UNL1       -0.2759
     17 C         140.8707  138.4796  163.0791 C.2     1  UNL1        0.2492
     18 O         140.9966  136.9853  163.1129 O.2     1  UNL1       -0.2699
     19 C         139.6255  138.3231  160.8042 C.3     1  UNL1        0.0957
     20 C         138.9399  138.9921  159.6499 C.3     1  UNL1        0.0460
     21 C         135.6598  141.3667  155.4739 C.3     1  UNL1        0.0756
     22 C         136.6786  141.5599  156.5577 C.ar    1  UNL1        0.1609
     23 N         137.4683  142.8095  156.8128 N.ar    1  UNL1       -0.2076
     24 C         138.3643  142.5594  157.9895 C.ar    1  UNL1        0.1968
     25 N         138.1284  141.1553  158.4616 N.ar    1  UNL1       -0.2323
     26 N         137.0866  140.5376  157.5768 N.ar    1  UNL1       -0.1531
     27 C         139.7418  142.3420  165.8177 C.3     1  UNL1        0.1776
     28 N         140.1992  143.1880  164.6665 N.ar    1  UNL1       -0.1467
     29 N         141.5560  143.1488  164.0279 N.ar    1  UNL1       -0.0451
     30 N         141.5755  144.1581  162.9185 N.ar    1  UNL1       -0.1123
     31 C         140.2307  144.8211  162.8714 C.ar    1  UNL1        0.1838
     32 C         139.8103  145.8952  161.9124 C.3     1  UNL1        0.0776
     33 N         139.3802  144.2215  163.9517 N.ar    1  UNL1       -0.1339
@<TRIPOS>BOND
     1    21    22    1
     2    22    23   ar
     3    23    24   ar
     4    24    25   ar
     5    25    13    1
     6    13    14    1
     7    14    15    1
     8    15    16    1
     9    16    17   am
    10    17    18    2
    11    17    11    1
    12    11    12    2
    13    12     1    1
    14     1     2   ar
    15     2     3   ar
    16     3     4   ar
    17     4     7    1
    18     7     8    1
    19     7     9    1
    20     7    10    1
    21     4     5   ar
    22     5     6   ar
    23     6    27    1
    24    27    28    1
    25    28    29   ar
    26    29    30   ar
    27    30    31   ar
    28    31    32    1
    29    31    33   ar
    30    16    19    1
    31    19    20    1
    32    25    26   ar
    33    26    22   ar
    34    20    13    1
    35     6     1   ar
    36    33    28   ar
@<TRIPOS>MOLECULE
*****
 33 36 0 0 0
SMALL
GASTEIGER

@<TRIPOS>ATOM
      1 C         139.6400  140.2472  165.8654 C.ar    1  UNL1       -0.0019
      2 C         139.0572  139.5071  167.0327 C.ar    1  UNL1       -0.0003
      3 C         139.2257  140.0461  168.4223 C.ar    1  UNL1        0.0038
      4 C         139.9771  141.3252  168.6446 C.ar    1  UNL1        0.0712
      5 C         140.5599  142.0653  167.4773 C.ar    1  UNL1        0.0016
      6 C         140.3913  141.5262  166.0877 C.ar    1  UNL1        0.0040
      7 C         140.1456  141.8642  170.0342 C.3     1  UNL1        0.4186
      8 F         140.3142  142.4032  171.4238 F       1  UNL1       -0.1659
      9 F         139.9598  140.4842  170.5920 F       1  UNL1       -0.1659
     10 F         140.3314  143.2441  169.4765 F       1  UNL1       -0.1659
     11 C         138.2422  140.0448  163.6847 C.2     1  UNL1        0.0579
     12 C         139.4714  139.7082  164.4758 C.2     1  UNL1        0.0044
     13 C         138.4752  142.2518  158.7527 C.3     1  UNL1        0.1103
     14 C         138.6437  142.7908  160.1423 C.3     1  UNL1        0.0460
     15 C         138.5099  141.8755  161.3231 C.3     1  UNL1        0.0957
     16 N         138.2075  140.4212  161.1142 N.am    1  UNL1       -0.2759
     17 C         138.0736  139.5059  162.2951 C.2     1  UNL1        0.2492
     18 O         137.7712  138.0516  162.0863 O.2     1  UNL1       -0.2699
     19 C         138.0389  139.8822  159.7246 C.3     1  UNL1        0.0957
     20 C         138.1728  140.7975  158.5439 C.3     1  UNL1        0.0460
     21 C         140.1524  146.0922  155.5403 C.3     1  UNL1        0.0756
     22 C         139.3800  144.9323  156.0953 C.ar    1  UNL1        0.1609
     23 N         138.2499  144.2187  155.4141 N.ar    1  UNL1       -0.2076
     24 C         137.7735  143.1278  156.3267 C.ar    1  UNL1        0.1968
     25 N         138.6090  143.1671  157.5718 N.ar    1  UNL1       -0.2323
     26 N         139.6019  144.2823  157.4288 N.ar    1  UNL1       -0.1531
     27 C         140.9741  142.2663  164.9203 C.3     1  UNL1        0.1776
     28 N         140.1704  143.3267  164.2276 N.ar    1  UNL1       -0.1467
     29 N         138.7186  143.6247  164.4589 N.ar    1  UNL1       -0.0451
     30 N         138.3283  144.7573  163.5563 N.ar    1  UNL1       -0.1123
     31 C         139.5389  145.1593  162.7670 C.ar    1  UNL1        0.1838
     32 C         139.6003  146.2534  161.7427 C.3     1  UNL1        0.0776
     33 N         140.6774  144.2751  163.1819 N.ar    1  UNL1       -0.1339
@<TRIPOS>BOND
     1    21    22    1
     2    22    23   ar
     3    23    24   ar
     4    24    25   ar
     5    25    13    1
     6    13    14    1
     7    14    15    1
     8    15    16    1
     9    16    17   am
    10    17    18    2
    11    17    11    1
    12    11    12    2
    13    12     1    1
    14     1     2   ar
    15     2     3   ar
    16     3     4   ar
    17     4     7    1
    18     7     8    1
    19     7     9    1
    20     7    10    1
    21     4     5   ar
    22     5     6   ar
    23     6    27    1
    24    27    28    1
    25    28    29   ar
    26    29    30   ar
    27    30    31   ar
    28    31    32    1
    29    31    33   ar
    30    16    19    1
    31    19    20    1
    32    25    26   ar
    33    26    22   ar
    34    20    13    1
    35     6     1   ar
    36    33    28   ar
@<TRIPOS>MOLECULE
*****
 33 36 0 0 0
SMALL
GASTEIGER

@<TRIPOS>ATOM
      1 C         140.1672  140.3563  166.0858 C.ar    1  UNL1       -0.0019
      2 C         139.6022  139.6283  167.2694 C.ar    1  UNL1       -0.0003
      3 C         139.5450  140.3033  168.6078 C.ar    1  UNL1        0.0038
      4 C         140.0529  141.7062  168.7626 C.ar    1  UNL1        0.0712
      5 C         140.6179  142.4341  167.5790 C.ar    1  UNL1        0.0016
      6 C         140.6750  141.7591  166.2406 C.ar    1  UNL1        0.0040
      7 C         139.9958  142.3811  170.1009 C.3     1  UNL1        0.4186
      8 F         139.9387  143.0560  171.4392 F       1  UNL1       -0.1659
      9 F         139.9930  143.7204  169.4254 F       1  UNL1       -0.1659
     10 F         139.9987  141.0419  170.7764 F       1  UNL1       -0.1659
     11 C         141.4180  138.8525  164.3758 C.2     1  UNL1        0.0579
     12 C         140.2243  139.6814  164.7475 C.2     1  UNL1        0.0044
     13 C         143.6481  140.1386  159.6196 C.3     1  UNL1        0.1103
     14 C         143.5910  140.8136  160.9579 C.3     1  UNL1        0.0460
     15 C         142.8667  140.1599  162.0972 C.3     1  UNL1        0.0957
     16 N         142.1995  138.8313  161.8981 N.am    1  UNL1       -0.2759
     17 C         141.4751  138.1776  163.0375 C.2     1  UNL1        0.2492
     18 O         140.8079  136.8490  162.8384 O.2     1  UNL1       -0.2699
     19 C         142.2566  138.1564  160.5598 C.3     1  UNL1        0.0957
     20 C         142.9809  138.8100  159.4205 C.3     1  UNL1        0.0460
     21 C         146.1342  140.8964  155.0232 C.3     1  UNL1        0.0756
     22 C         145.5152  141.1406  156.3675 C.ar    1  UNL1        0.1609
     23 N         145.4591  142.4559  157.0865 N.ar    1  UNL1       -0.2076
     24 C         144.7529  142.2407  158.3922 C.ar    1  UNL1        0.1968
     25 N         144.3725  140.7923  158.4802 N.ar    1  UNL1       -0.2323
     26 N         144.8436  140.1125  157.2289 N.ar    1  UNL1       -0.1531
     27 C         141.2400  142.4871  165.0570 C.3     1  UNL1        0.1776
     28 N         140.3882  143.4623  164.2997 N.ar    1  UNL1       -0.1467
     29 N         138.9068  143.6420  164.4511 N.ar    1  UNL1       -0.0451
     30 N         138.4713  144.7198  163.5030 N.ar    1  UNL1       -0.1123
     31 C         139.6837  145.2061  162.7657 C.ar    1  UNL1        0.1838
     32 C         139.7072  146.2810  161.7196 C.3     1  UNL1        0.0776
     33 N         140.8684  144.4290  163.2581 N.ar    1  UNL1       -0.1339
@<TRIPOS>BOND
     1    21    22    1
     2    22    23   ar
     3    23    24   ar
     4    24    25   ar
     5    25    13    1
     6    13    14    1
     7    14    15    1
     8    15    16    1
     9    16    17   am
    10    17    18    2
    11    17    11    1
    12    11    12    2
    13    12     1    1
    14     1     2   ar
    15     2     3   ar
    16     3     4   ar
    17     4     7    1
    18     7     8    1
    19     7     9    1
    20     7    10    1
    21     4     5   ar
    22     5     6   ar
    23     6    27    1
    24    27    28    1
    25    28    29   ar
    26    29    30   ar
    27    30    31   ar
    28    31    32    1
    29    31    33   ar
    30    16    19    1
    31    19    20    1
    32    25    26   ar
    33    26    22   ar
    34    20    13    1
    35     6     1   ar
    36    33    28   ar
@<TRIPOS>MOLECULE
*****
 33 36 0 0 0
SMALL
GASTEIGER

@<TRIPOS>ATOM
      1 C         140.7132  139.7664  165.7115 C.ar    1  UNL1       -0.0019
      2 C         139.8207  140.0782  166.8761 C.ar    1  UNL1       -0.0003
      3 C         140.3837  140.1061  168.2661 C.ar    1  UNL1        0.0038
      4 C         141.8393  139.8221  168.4916 C.ar    1  UNL1        0.0712
      5 C         142.7317  139.5103  167.3270 C.ar    1  UNL1        0.0016
      6 C         142.1686  139.4824  165.9369 C.ar    1  UNL1        0.0040
      7 C         142.4023  139.8499  169.8816 C.3     1  UNL1        0.4186
      8 F         142.9653  139.8778  171.2716 F       1  UNL1       -0.1659
      9 F         142.0503  141.3036  169.9950 F       1  UNL1       -0.1659
     10 F         142.7542  138.3963  169.7682 F       1  UNL1       -0.1659
     11 C         139.8240  138.4270  163.6705 C.2     1  UNL1        0.0579
     12 C         140.1502  139.7385  164.3215 C.2     1  UNL1        0.0044
     13 C         142.0273  138.4373  158.7314 C.3     1  UNL1        0.1103
     14 C         142.5903  138.4652  160.1214 C.3     1  UNL1        0.0460
     15 C         141.6682  138.4525  161.3044 C.3     1  UNL1        0.0957
     16 N         140.1831  138.4119  161.0974 N.am    1  UNL1       -0.2759
     17 C         139.2610  138.3992  162.2805 C.2     1  UNL1        0.2492
     18 O         137.7759  138.3586  162.0735 O.2     1  UNL1       -0.2699
     19 C         139.6201  138.3840  159.7074 C.3     1  UNL1        0.0957
     20 C         140.5422  138.3968  158.5244 C.3     1  UNL1        0.0460
     21 C         145.5317  140.0198  155.1125 C.3     1  UNL1        0.0756
     22 C         144.5601  139.1774  155.8849 C.ar    1  UNL1        0.1609
     23 N         144.1764  137.7618  155.5706 N.ar    1  UNL1       -0.2076
     24 C         143.1809  137.3123  156.5986 C.ar    1  UNL1        0.1968
     25 N         142.9494  138.4501  157.5483 N.ar    1  UNL1       -0.2323
     26 N         143.8018  139.6028  157.1071 N.ar    1  UNL1       -0.1531
     27 C         143.0611  139.1706  164.7724 C.3     1  UNL1        0.1776
     28 N         143.8704  140.2608  164.1346 N.ar    1  UNL1       -0.1467
     29 N         145.3513  140.2358  163.8972 N.ar    1  UNL1       -0.0451
     30 N         145.7370  141.5268  163.2381 N.ar    1  UNL1       -0.1123
     31 C         144.4944  142.3498  163.0682 C.ar    1  UNL1        0.1838
     32 C         144.4187  143.7155  162.4524 C.3     1  UNL1        0.0776
     33 N         143.3408  141.5673  163.6223 N.ar    1  UNL1       -0.1339
@<TRIPOS>BOND
     1    21    22    1
     2    22    23   ar
     3    23    24   ar
     4    24    25   ar
     5    25    13    1
     6    13    14    1
     7    14    15    1
     8    15    16    1
     9    16    17   am
    10    17    18    2
    11    17    11    1
    12    11    12    2
    13    12     1    1
    14     1     2   ar
    15     2     3   ar
    16     3     4   ar
    17     4     7    1
    18     7     8    1
    19     7     9    1
    20     7    10    1
    21     4     5   ar
    22     5     6   ar
    23     6    27    1
    24    27    28    1
    25    28    29   ar
    26    29    30   ar
    27    30    31   ar
    28    31    32    1
    29    31    33   ar
    30    16    19    1
    31    19    20    1
    32    25    26   ar
    33    26    22   ar
    34    20    13    1
    35     6     1   ar
    36    33    28   ar
@<TRIPOS>MOLECULE
*****
 33 36 0 0 0
SMALL
GASTEIGER

@<TRIPOS>ATOM
      1 C         142.3561  142.1285  166.2274 C.ar    1  UNL1       -0.0019
      2 C         143.0242  142.0209  167.5661 C.ar    1  UNL1       -0.0003
      3 C         142.2670  142.3718  168.8125 C.ar    1  UNL1        0.0038
      4 C         140.8418  142.8304  168.7202 C.ar    1  UNL1        0.0712
      5 C         140.1737  142.9380  167.3815 C.ar    1  UNL1        0.0016
      6 C         140.9310  142.5871  166.1351 C.ar    1  UNL1        0.0040
      7 C         140.0846  143.1813  169.9666 C.3     1  UNL1        0.4186
      8 F         139.3275  143.5322  171.2130 F       1  UNL1       -0.1659
      9 F         140.6580  144.5667  169.9249 F       1  UNL1       -0.1659
     10 F         139.5113  141.7959  170.0083 F       1  UNL1       -0.1659
     11 C         143.9903  142.8013  164.3229 C.2     1  UNL1        0.0579
     12 C         143.1133  141.7776  164.9810 C.2     1  UNL1        0.0044
     13 C         143.0218  143.4434  159.0410 C.3     1  UNL1        0.1103
     14 C         142.2646  143.7944  160.2874 C.3     1  UNL1        0.0460
     15 C         142.8399  143.4633  161.6325 C.3     1  UNL1        0.0957
     16 N         144.1723  142.7814  161.7313 N.am    1  UNL1       -0.2759
     17 C         144.7475  142.4504  163.0765 C.2     1  UNL1        0.2492
     18 O         146.0799  141.7685  163.1753 O.2     1  UNL1       -0.2699
     19 C         144.9294  142.4305  160.4849 C.3     1  UNL1        0.0957
     20 C         144.3542  142.7615  159.1397 C.3     1  UNL1        0.0460
     21 C         140.8520  146.0909  155.0205 C.3     1  UNL1        0.0756
     22 C         141.4492  144.9913  155.8477 C.ar    1  UNL1        0.1609
     23 N         141.6736  143.5762  155.4036 N.ar    1  UNL1       -0.2076
     24 C         142.2900  142.8242  156.5457 C.ar    1  UNL1        0.1968
     25 N         142.4465  143.7745  157.6957 N.ar    1  UNL1       -0.2323
     26 N         141.9269  145.1138  157.2643 N.ar    1  UNL1       -0.1531
     27 C         140.2629  142.6947  164.7964 C.3     1  UNL1        0.1776
     28 N         139.5313  141.5157  164.2263 N.ar    1  UNL1       -0.1467
     29 N         138.3087  141.5720  163.3591 N.ar    1  UNL1       -0.0451
     30 N         137.9155  140.1646  163.0202 N.ar    1  UNL1       -0.1123
     31 C         138.8953  139.2386  163.6780 C.ar    1  UNL1        0.1838
     32 C         138.8792  137.7405  163.6035 C.3     1  UNL1        0.0776
     33 N         139.8938  140.0736  164.4234 N.ar    1  UNL1       -0.1339
@<TRIPOS>BOND
     1    21    22    1
     2    22    23   ar
     3    23    24   ar
     4    24    25   ar
     5    25    13    1
     6    13    14    1
     7    14    15    1
     8    15    16    1
     9    16    17   am
    10    17    18    2
    11    17    11    1
    12    11    12    2
    13    12     1    1
    14     1     2   ar
    15     2     3   ar
    16     3     4   ar
    17     4     7    1
    18     7     8    1
    19     7     9    1
    20     7    10    1
    21     4     5   ar
    22     5     6   ar
    23     6    27    1
    24    27    28    1
    25    28    29   ar
    26    29    30   ar
    27    30    31   ar
    28    31    32    1
    29    31    33   ar
    30    16    19    1
    31    19    20    1
    32    25    26   ar
    33    26    22   ar
    34    20    13    1
    35     6     1   ar
    36    33    28   ar
@<TRIPOS>MOLECULE
*****
 33 36 0 0 0
SMALL
GASTEIGER

@<TRIPOS>ATOM
      1 C         138.8207  138.7594  162.7548 C.ar    1  UNL1       -0.0019
      2 C         138.9779  137.5516  163.6303 C.ar    1  UNL1       -0.0003
      3 C         138.7352  137.6587  165.1066 C.ar    1  UNL1        0.0038
      4 C         138.3354  138.9737  165.7075 C.ar    1  UNL1        0.0712
      5 C         138.1783  140.1815  164.8320 C.ar    1  UNL1        0.0016
      6 C         138.4209  140.0743  163.3556 C.ar    1  UNL1        0.0040
      7 C         138.0927  139.0808  167.1838 C.3     1  UNL1        0.4186
      8 F         137.8501  139.1880  168.6601 F       1  UNL1       -0.1659
      9 F         139.0611  140.2237  167.2601 F       1  UNL1       -0.1659
     10 F         137.1243  137.9379  167.1076 F       1  UNL1       -0.1659
     11 C         140.4406  138.8738  160.7267 C.2     1  UNL1        0.0579
     12 C         139.0634  138.6522  161.2784 C.2     1  UNL1        0.0044
     13 C         144.3165  140.6918  157.4219 C.3     1  UNL1        0.1103
     14 C         144.0738  140.7990  158.8982 C.3     1  UNL1        0.0460
     15 C         142.8628  140.1572  159.5077 C.3     1  UNL1        0.0957
     16 N         141.8944  139.4084  158.6408 N.am    1  UNL1       -0.2759
     17 C         140.6833  138.7667  159.2503 C.2     1  UNL1        0.2492
     18 O         139.7149  138.0178  158.3835 O.2     1  UNL1       -0.2699
     19 C         142.1370  139.3013  157.1645 C.3     1  UNL1        0.0957
     20 C         143.3481  139.9430  156.5550 C.3     1  UNL1        0.0460
     21 C         148.3081  141.7813  154.1415 C.3     1  UNL1        0.0756
     22 C         147.3623  141.8343  155.3045 C.ar    1  UNL1        0.1609
     23 N         147.4202  142.8078  156.4443 N.ar    1  UNL1       -0.2076
     24 C         146.2862  142.4983  157.3762 C.ar    1  UNL1        0.1968
     25 N         145.5276  141.3335  156.8123 N.ar    1  UNL1       -0.2323
     26 N         146.1927  140.9232  155.5320 N.ar    1  UNL1       -0.1531
     27 C         138.2638  141.2821  162.4801 C.3     1  UNL1        0.1776
     28 N         138.7999  142.6091  162.9295 N.ar    1  UNL1       -0.1467
     29 N         138.0004  143.7224  163.5390 N.ar    1  UNL1       -0.0451
     30 N         138.9359  144.8570  163.8345 N.ar    1  UNL1       -0.1123
     31 C         140.3136  144.4450  163.4076 C.ar    1  UNL1        0.1838
     32 C         141.5571  145.2763  163.5203 C.3     1  UNL1        0.0776
     33 N         140.2295  143.0557  162.8483 N.ar    1  UNL1       -0.1339
@<TRIPOS>BOND
     1    21    22    1
     2    22    23   ar
     3    23    24   ar
     4    24    25   ar
     5    25    13    1
     6    13    14    1
     7    14    15    1
     8    15    16    1
     9    16    17   am
    10    17    18    2
    11    17    11    1
    12    11    12    2
    13    12     1    1
    14     1     2   ar
    15     2     3   ar
    16     3     4   ar
    17     4     7    1
    18     7     8    1
    19     7     9    1
    20     7    10    1
    21     4     5   ar
    22     5     6   ar
    23     6    27    1
    24    27    28    1
    25    28    29   ar
    26    29    30   ar
    27    30    31   ar
    28    31    32    1
    29    31    33   ar
    30    16    19    1
    31    19    20    1
    32    25    26   ar
    33    26    22   ar
    34    20    13    1
    35     6     1   ar
    36    33    28   ar
@<TRIPOS>MOLECULE
*****
 33 36 0 0 0
SMALL
GASTEIGER

@<TRIPOS>ATOM
      1 C         141.2918  139.0068  165.6852 C.ar    1  UNL1       -0.0019
      2 C         142.4427  139.1797  166.6315 C.ar    1  UNL1       -0.0003
      3 C         142.2071  139.7320  168.0060 C.ar    1  UNL1        0.0038
      4 C         140.8206  140.1116  168.4344 C.ar    1  UNL1        0.0712
      5 C         139.6696  139.9388  167.4881 C.ar    1  UNL1        0.0016
      6 C         139.9052  139.3864  166.1135 C.ar    1  UNL1        0.0040
      7 C         140.5850  140.6640  169.8089 C.3     1  UNL1        0.4186
      8 F         140.3494  141.2163  171.1834 F       1  UNL1       -0.1659
      9 F         142.0538  140.5704  170.0982 F       1  UNL1       -0.1659
     10 F         139.1162  140.7576  169.5195 F       1  UNL1       -0.1659
     11 C         142.4072  139.1931  163.3462 C.2     1  UNL1        0.0579
     12 C         141.5273  138.4545  164.3107 C.2     1  UNL1        0.0044
     13 C         139.8275  139.6769  158.6175 C.3     1  UNL1        0.1103
     14 C         139.5919  140.2292  159.9920 C.3     1  UNL1        0.0460
     15 C         140.5303  139.8839  161.1101 C.3     1  UNL1        0.0957
     16 N         141.7043  138.9861  160.8536 N.am    1  UNL1       -0.2759
     17 C         142.6428  138.6408  161.9717 C.2     1  UNL1        0.2492
     18 O         143.8168  137.7430  161.7152 O.2     1  UNL1       -0.2699
     19 C         141.9399  138.4338  159.4790 C.3     1  UNL1        0.0957
     20 C         141.0015  138.7791  158.3610 C.3     1  UNL1        0.0460
     21 C         135.4970  141.1092  155.9573 C.3     1  UNL1        0.0756
     22 C         136.8985  140.6806  156.2767 C.ar    1  UNL1        0.1609
     23 N         137.9914  140.4267  155.2810 N.ar    1  UNL1       -0.2076
     24 C         139.2215  140.0198  156.0367 C.ar    1  UNL1        0.1968
     25 N         138.8890  140.0222  157.4994 N.ar    1  UNL1       -0.2323
     26 N         137.4533  140.4306  157.6477 N.ar    1  UNL1       -0.1531
     27 C         138.7543  139.2135  165.1672 C.3     1  UNL1        0.1776
     28 N         138.2764  140.3753  164.3474 N.ar    1  UNL1       -0.1467
     29 N         137.5583  140.2909  163.0331 N.ar    1  UNL1       -0.0451
     30 N         137.2708  141.6887  162.5714 N.ar    1  UNL1       -0.1123
     31 C         137.8112  142.6371  163.6003 C.ar    1  UNL1        0.1838
     32 C         137.7422  144.1344  163.5418 C.3     1  UNL1        0.0776
     33 N         138.4327  141.8253  164.6979 N.ar    1  UNL1       -0.1339
@<TRIPOS>BOND
     1    21    22    1
     2    22    23   ar
     3    23    24   ar
     4    24    25   ar
     5    25    13    1
     6    13    14    1
     7    14    15    1
     8    15    16    1
     9    16    17   am
    10    17    18    2
    11    17    11    1
    12    11    12    2
    13    12     1    1
    14     1     2   ar
    15     2     3   ar
    16     3     4   ar
    17     4     7    1
    18     7     8    1
    19     7     9    1
    20     7    10    1
    21     4     5   ar
    22     5     6   ar
    23     6    27    1
    24    27    28    1
    25    28    29   ar
    26    29    30   ar
    27    30    31   ar
    28    31    32    1
    29    31    33   ar
    30    16    19    1
    31    19    20    1
    32    25    26   ar
    33    26    22   ar
    34    20    13    1
    35     6     1   ar
    36    33    28   ar
