@<TRIPOS>MOLECULE
*****
 40 42 0 0 0
SMALL
GASTEIGER

@<TRIPOS>ATOM
      1 C         140.8967  143.5513  165.1045 C.3     1  UNL1        0.2016
      2 C         141.8225  143.2325  163.9681 C.3     1  UNL1        0.0679
      3 C         141.6192  143.8805  162.6306 C.3     1  UNL1        0.0973
      4 N         140.4902  144.8473  162.4295 N.am    1  UNL1       -0.2762
      5 C         140.2869  145.4953  161.0921 C.2     1  UNL1        0.2301
      6 O         139.1578  146.4621  160.8909 O.2     1  UNL1       -0.2745
      7 C         139.5643  145.1661  163.5658 C.3     1  UNL1        0.1323
      8 C         139.7676  144.5182  164.9033 C.3     1  UNL1        0.2202
      9 F         138.8418  144.8370  166.0396 F       1  UNL1       -0.2316
     10 O         141.0999  142.9033  166.4419 O.3     1  UNL1       -0.4760
     11 C         138.9227  139.6002  166.1275 C.ar    1  UNL1        0.1417
     12 C         138.6910  139.2747  167.5733 C.ar    1  UNL1        0.0373
     13 C         139.2623  140.1588  168.6420 C.ar    1  UNL1        0.0107
     14 C         140.0653  141.3683  168.2649 C.ar    1  UNL1        0.0872
     15 C         140.2969  141.6938  166.8191 C.ar    1  UNL1        0.1458
     16 C         139.7257  140.8097  165.7504 C.ar    1  UNL1        0.0739
     17 C         140.6365  142.2524  169.3335 C.2     1  UNL1        0.2457
     18 N         140.2314  143.6946  169.4098 N.am    1  UNL1       -0.3252
     19 O         141.6130  141.6943  170.3260 O.2     1  UNL1       -0.2703
     20 H         139.5905  144.0609  168.7584 H       1  UNL1        0.1453
     21 H         140.6063  144.2748  170.1112 H       1  UNL1        0.1453
     22 O         138.3514  138.7161  165.0589 O.3     1  UNL1       -0.4728
     23 C         139.0993  137.4928  164.6183 C.3     1  UNL1        0.2318
     24 C         141.0940  137.0544  164.0447 C.3     1  UNL1        0.0332
     25 C         139.8573  137.5028  163.3239 C.3     1  UNL1        0.1286
     26 C         138.6206  137.9512  162.6032 C.3     1  UNL1        0.0332
     27 O         140.6153  137.5127  162.0296 O.3     1  UNL1       -0.3831
     28 H         139.9963  137.6380  161.2933 H       1  UNL1        0.2104
     29 C         141.2127  145.1765  159.9558 C.3     1  UNL1        0.1116
     30 C         140.6665  145.0023  158.5696 C.ar    1  UNL1       -0.0129
     31 C         139.8096  143.8148  158.2448 C.ar    1  UNL1       -0.0007
     32 C         139.2635  143.6406  156.8587 C.ar    1  UNL1        0.0369
     33 C         139.5742  144.6540  155.7974 C.ar    1  UNL1        0.1468
     34 C         140.4311  145.8416  156.1222 C.ar    1  UNL1        0.0369
     35 C         140.9772  146.0157  157.5083 C.ar    1  UNL1       -0.0007
     36 O         139.0280  144.4799  154.4112 O.3     1  UNL1       -0.4045
     37 C         137.5942  144.0855  154.2141 C.3     1  UNL1        0.5753
     38 F         136.1605  143.6912  154.0170 F       1  UNL1       -0.1328
     39 F         137.1609  145.4693  154.5981 F       1  UNL1       -0.1328
     40 F         138.0276  142.7018  153.8300 F       1  UNL1       -0.1328
@<TRIPOS>BOND
     1    24    25    1
     2    25    26    1
     3    25    27    1
     4    25    23    1
     5    23    22    1
     6    22    11    1
     7    11    12   ar
     8    12    13   ar
     9    13    14   ar
    10    14    17    1
    11    17    18   am
    12    17    19    2
    13    14    15   ar
    14    15    10    1
    15     1    10    1
    16     1     2    1
    17     2     3    1
    18     3     4    1
    19     4     5   am
    20     5     6    2
    21     5    29    1
    22    29    30    1
    23    30    31   ar
    24    31    32   ar
    25    32    33   ar
    26    33    36    1
    27    36    37    1
    28    37    38    1
    29    37    39    1
    30    37    40    1
    31    33    34   ar
    32    34    35   ar
    33     4     7    1
    34     7     8    1
    35     8     9    1
    36    15    16   ar
    37    16    11   ar
    38     8     1    1
    39    35    30   ar
    40    27    28    1
    41    18    20    1
    42    18    21    1
@<TRIPOS>MOLECULE
*****
 40 42 0 0 0
SMALL
GASTEIGER

@<TRIPOS>ATOM
      1 C         143.5741  139.1274  160.5680 C.3     1  UNL1        0.2016
      2 C         144.4614  139.3829  161.7502 C.3     1  UNL1        0.0679
      3 C         143.9942  139.0248  163.1299 C.3     1  UNL1        0.0973
      4 N         142.6397  138.4113  163.3274 N.am    1  UNL1       -0.2762
      5 C         142.1725  138.0533  164.7071 C.2     1  UNL1        0.2301
      6 O         140.8180  137.4398  164.9046 O.2     1  UNL1       -0.2745
      7 C         141.7524  138.1559  162.1453 C.3     1  UNL1        0.1323
      8 C         142.2196  138.5139  160.7656 C.3     1  UNL1        0.2202
      9 F         141.3324  138.2585  159.5834 F       1  UNL1       -0.2316
     10 O         144.0413  139.4855  159.1884 O.3     1  UNL1       -0.4760
     11 C         142.9634  143.2966  158.9358 C.ar    1  UNL1        0.1417
     12 C         143.0558  143.5198  157.4554 C.ar    1  UNL1        0.0373
     13 C         143.4767  142.3982  156.5527 C.ar    1  UNL1        0.0107
     14 C         143.8052  141.0535  157.1303 C.ar    1  UNL1        0.0872
     15 C         143.7128  140.8303  158.6107 C.ar    1  UNL1        0.1458
     16 C         143.2919  141.9518  159.5135 C.ar    1  UNL1        0.0739
     17 C         144.2260  139.9319  156.2275 C.2     1  UNL1        0.2457
     18 N         145.6826  139.6280  156.0380 N.am    1  UNL1       -0.3252
     19 O         143.1903  139.1143  155.5142 O.2     1  UNL1       -0.2703
     20 H         146.3624  140.1646  156.5062 H       1  UNL1        0.1453
     21 H         145.9588  138.8919  155.4455 H       1  UNL1        0.1453
     22 O         142.5426  144.4181  159.8386 O.3     1  UNL1       -0.4728
     23 C         141.8997  144.1165  161.1598 C.3     1  UNL1        0.2318
     24 C         141.9575  144.8710  163.1416 C.3     1  UNL1        0.0332
     25 C         141.1738  145.1972  161.9049 C.3     1  UNL1        0.1286
     26 C         140.3902  145.5235  160.6682 C.3     1  UNL1        0.0332
     27 O         140.4480  146.2780  162.6499 O.3     1  UNL1       -0.3831
     28 H         139.9282  146.8081  162.0256 H       1  UNL1        0.2104
     29 C         143.0598  138.3088  165.8892 C.3     1  UNL1        0.1116
     30 C         142.7858  139.4727  166.7950 C.ar    1  UNL1       -0.0129
     31 C         142.7174  139.2680  168.2794 C.ar    1  UNL1       -0.0007
     32 C         142.4434  140.4319  169.1851 C.ar    1  UNL1        0.0369
     33 C         142.2380  141.8004  168.6064 C.ar    1  UNL1        0.1468
     34 C         142.3064  142.0051  167.1221 C.ar    1  UNL1        0.0369
     35 C         142.5804  140.8412  166.2163 C.ar    1  UNL1       -0.0007
     36 O         141.9640  142.9643  169.5122 O.3     1  UNL1       -0.4045
     37 C         140.6273  143.0967  170.1799 C.3     1  UNL1        0.5753
     38 F         139.2907  143.2290  170.8476 F       1  UNL1       -0.1328
     39 F         141.1483  142.3487  171.3712 F       1  UNL1       -0.1328
     40 F         140.1063  143.8446  168.9886 F       1  UNL1       -0.1328
@<TRIPOS>BOND
     1    24    25    1
     2    25    26    1
     3    25    27    1
     4    25    23    1
     5    23    22    1
     6    22    11    1
     7    11    12   ar
     8    12    13   ar
     9    13    14   ar
    10    14    17    1
    11    17    18   am
    12    17    19    2
    13    14    15   ar
    14    15    10    1
    15     1    10    1
    16     1     2    1
    17     2     3    1
    18     3     4    1
    19     4     5   am
    20     5     6    2
    21     5    29    1
    22    29    30    1
    23    30    31   ar
    24    31    32   ar
    25    32    33   ar
    26    33    36    1
    27    36    37    1
    28    37    38    1
    29    37    39    1
    30    37    40    1
    31    33    34   ar
    32    34    35   ar
    33     4     7    1
    34     7     8    1
    35     8     9    1
    36    15    16   ar
    37    16    11   ar
    38     8     1    1
    39    35    30   ar
    40    27    28    1
    41    18    20    1
    42    18    21    1
@<TRIPOS>MOLECULE
*****
 40 42 0 0 0
SMALL
GASTEIGER

@<TRIPOS>ATOM
      1 C         143.1734  140.5061  166.1985 C.3     1  UNL1        0.2016
      2 C         142.7724  141.4540  165.1074 C.3     1  UNL1        0.0679
      3 C         142.8352  141.0171  163.6737 C.3     1  UNL1        0.0973
      4 N         143.2991  139.6323  163.3313 N.am    1  UNL1       -0.2762
      5 C         143.3619  139.1955  161.8978 C.2     1  UNL1        0.2301
      6 O         143.8258  137.8107  161.5553 O.2     1  UNL1       -0.2745
      7 C         143.7001  138.6844  164.4225 C.3     1  UNL1        0.1323
      8 C         143.6373  139.1213  165.8561 C.3     1  UNL1        0.2202
      9 F         144.0383  138.1734  166.9472 F       1  UNL1       -0.2316
     10 O         143.1106  140.9429  167.6321 O.3     1  UNL1       -0.4760
     11 C         139.3923  139.9598  168.6107 C.ar    1  UNL1        0.1417
     12 C         139.2145  140.7467  169.8753 C.ar    1  UNL1        0.0373
     13 C         140.3354  141.5990  170.3922 C.ar    1  UNL1        0.0107
     14 C         141.6341  141.6644  169.6445 C.ar    1  UNL1        0.0872
     15 C         141.8119  140.8775  168.3799 C.ar    1  UNL1        0.1458
     16 C         140.6909  140.0252  167.8630 C.ar    1  UNL1        0.0739
     17 C         142.7550  142.5167  170.1613 C.2     1  UNL1        0.2457
     18 N         144.1429  141.9553  170.2536 N.am    1  UNL1       -0.3252
     19 O         142.4880  143.9303  170.5859 O.2     1  UNL1       -0.2703
     20 H         144.3182  141.0275  169.9750 H       1  UNL1        0.1453
     21 H         144.8786  142.5147  170.5929 H       1  UNL1        0.1453
     22 O         138.2713  139.1075  168.0938 O.3     1  UNL1       -0.4728
     23 C         137.8156  139.2493  166.6719 C.3     1  UNL1        0.2318
     24 C         137.8921  137.1416  166.4448 C.3     1  UNL1        0.0332
     25 C         138.3354  138.3140  165.6208 C.3     1  UNL1        0.1286
     26 C         138.7788  139.4864  164.7967 C.3     1  UNL1        0.0332
     27 O         138.8553  137.3786  164.5697 O.3     1  UNL1       -0.3831
     28 H         139.0973  137.8842  163.7780 H       1  UNL1        0.2104
     29 C         142.9609  140.1434  160.8066 C.3     1  UNL1        0.1116
     30 C         141.7496  141.0119  160.9753 C.ar    1  UNL1       -0.0129
     31 C         140.4199  140.3920  161.2877 C.ar    1  UNL1       -0.0007
     32 C         139.2086  141.2605  161.4564 C.ar    1  UNL1        0.0369
     33 C         139.3270  142.7488  161.3127 C.ar    1  UNL1        0.1468
     34 C         140.6567  143.3687  161.0003 C.ar    1  UNL1        0.0369
     35 C         141.8680  142.5003  160.8316 C.ar    1  UNL1       -0.0007
     36 O         138.1157  143.6174  161.4814 O.3     1  UNL1       -0.4045
     37 C         137.7191  144.0943  162.8471 C.3     1  UNL1        0.5753
     38 F         137.3225  144.5712  164.2129 F       1  UNL1       -0.1328
     39 F         137.0832  142.7648  163.1267 F       1  UNL1       -0.1328
     40 F         138.3550  145.4238  162.5675 F       1  UNL1       -0.1328
@<TRIPOS>BOND
     1    24    25    1
     2    25    26    1
     3    25    27    1
     4    25    23    1
     5    23    22    1
     6    22    11    1
     7    11    12   ar
     8    12    13   ar
     9    13    14   ar
    10    14    17    1
    11    17    18   am
    12    17    19    2
    13    14    15   ar
    14    15    10    1
    15     1    10    1
    16     1     2    1
    17     2     3    1
    18     3     4    1
    19     4     5   am
    20     5     6    2
    21     5    29    1
    22    29    30    1
    23    30    31   ar
    24    31    32   ar
    25    32    33   ar
    26    33    36    1
    27    36    37    1
    28    37    38    1
    29    37    39    1
    30    37    40    1
    31    33    34   ar
    32    34    35   ar
    33     4     7    1
    34     7     8    1
    35     8     9    1
    36    15    16   ar
    37    16    11   ar
    38     8     1    1
    39    35    30   ar
    40    27    28    1
    41    18    20    1
    42    18    21    1
@<TRIPOS>MOLECULE
*****
 40 42 0 0 0
SMALL
GASTEIGER

@<TRIPOS>ATOM
      1 C         138.1239  141.4098  161.8544 C.3     1  UNL1        0.2016
      2 C         137.6406  141.8120  163.2163 C.3     1  UNL1        0.0679
      3 C         137.7911  140.8700  164.3739 C.3     1  UNL1        0.0973
      4 N         138.4250  139.5260  164.1696 N.am    1  UNL1       -0.2762
      5 C         138.5756  138.5841  165.3272 C.2     1  UNL1        0.2301
      6 O         139.2094  137.2399  165.1230 O.2     1  UNL1       -0.2745
      7 C         138.9083  139.1238  162.8078 C.3     1  UNL1        0.1323
      8 C         138.7578  140.0657  161.6501 C.3     1  UNL1        0.2202
      9 F         139.2411  139.6636  160.2883 F       1  UNL1       -0.2316
     10 O         137.9733  142.3517  160.6968 O.3     1  UNL1       -0.4760
     11 C         141.4988  144.1256  160.2788 C.ar    1  UNL1        0.1417
     12 C         141.6198  144.1672  158.7843 C.ar    1  UNL1        0.0373
     13 C         140.5253  143.6037  157.9273 C.ar    1  UNL1        0.0107
     14 C         139.3098  142.9985  158.5647 C.ar    1  UNL1        0.0872
     15 C         139.1888  142.9569  160.0592 C.ar    1  UNL1        0.1458
     16 C         140.2833  143.5204  160.9163 C.ar    1  UNL1        0.0739
     17 C         138.2153  142.4350  157.7077 C.2     1  UNL1        0.2457
     18 N         137.6952  141.0524  157.9683 N.am    1  UNL1       -0.3252
     19 O         137.6410  143.2540  156.5900 O.2     1  UNL1       -0.2703
     20 H         138.0721  140.5149  158.7019 H       1  UNL1        0.1453
     21 H         136.9768  140.6826  157.4058 H       1  UNL1        0.1453
     22 O         142.5933  144.6891  161.1358 O.3     1  UNL1       -0.4728
     23 C         142.5790  144.4590  162.6180 C.3     1  UNL1        0.2318
     24 C         144.4812  143.5666  162.3258 C.3     1  UNL1        0.0332
     25 C         143.2974  143.2781  163.2006 C.3     1  UNL1        0.1286
     26 C         142.1135  142.9896  164.0754 C.3     1  UNL1        0.0332
     27 O         144.0157  142.0972  163.7833 O.3     1  UNL1       -0.3831
     28 H         143.5180  141.7592  164.5441 H       1  UNL1        0.2104
     29 C         138.0922  138.9862  166.6891 C.3     1  UNL1        0.1116
     30 C         139.0378  139.6269  167.6616 C.ar    1  UNL1       -0.0129
     31 C         138.6024  139.8810  169.0743 C.ar    1  UNL1       -0.0007
     32 C         139.5479  140.5216  170.0468 C.ar    1  UNL1        0.0369
     33 C         140.9287  140.9081  169.6064 C.ar    1  UNL1        0.1468
     34 C         141.3640  140.6540  168.1937 C.ar    1  UNL1        0.0369
     35 C         140.4186  140.0134  167.2212 C.ar    1  UNL1       -0.0007
     36 O         141.8742  141.5488  170.5789 O.3     1  UNL1       -0.4045
     37 C         143.1850  142.0983  170.0993 C.3     1  UNL1        0.5753
     38 F         144.4957  142.6478  169.6197 F       1  UNL1       -0.1328
     39 F         143.8361  140.7723  170.3595 F       1  UNL1       -0.1328
     40 F         142.5339  143.4243  169.8391 F       1  UNL1       -0.1328
@<TRIPOS>BOND
     1    24    25    1
     2    25    26    1
     3    25    27    1
     4    25    23    1
     5    23    22    1
     6    22    11    1
     7    11    12   ar
     8    12    13   ar
     9    13    14   ar
    10    14    17    1
    11    17    18   am
    12    17    19    2
    13    14    15   ar
    14    15    10    1
    15     1    10    1
    16     1     2    1
    17     2     3    1
    18     3     4    1
    19     4     5   am
    20     5     6    2
    21     5    29    1
    22    29    30    1
    23    30    31   ar
    24    31    32   ar
    25    32    33   ar
    26    33    36    1
    27    36    37    1
    28    37    38    1
    29    37    39    1
    30    37    40    1
    31    33    34   ar
    32    34    35   ar
    33     4     7    1
    34     7     8    1
    35     8     9    1
    36    15    16   ar
    37    16    11   ar
    38     8     1    1
    39    35    30   ar
    40    27    28    1
    41    18    20    1
    42    18    21    1
@<TRIPOS>MOLECULE
*****
 40 42 0 0 0
SMALL
GASTEIGER

@<TRIPOS>ATOM
      1 C         138.4846  140.6083  160.0694 C.3     1  UNL1        0.2016
      2 C         137.7797  140.6334  161.3932 C.3     1  UNL1        0.0679
      3 C         138.1910  139.6848  162.4800 C.3     1  UNL1        0.0973
      4 N         139.3071  138.7111  162.2429 N.am    1  UNL1       -0.2762
      5 C         139.7183  137.7625  163.3296 C.2     1  UNL1        0.2301
      6 O         140.8344  136.7887  163.0925 O.2     1  UNL1       -0.2745
      7 C         140.0119  138.6860  160.9190 C.3     1  UNL1        0.1323
      8 C         139.6007  139.6345  159.8323 C.3     1  UNL1        0.2202
      9 F         140.3055  139.6094  158.5084 F       1  UNL1       -0.2316
     10 O         138.0733  141.5569  158.9827 O.3     1  UNL1       -0.4760
     11 C         140.3146  144.7552  159.6881 C.ar    1  UNL1        0.1417
     12 C         140.3916  145.3557  158.3157 C.ar    1  UNL1        0.0373
     13 C         139.6958  144.6899  157.1657 C.ar    1  UNL1        0.0107
     14 C         138.9231  143.4237  157.3879 C.ar    1  UNL1        0.0872
     15 C         138.8461  142.8232  158.7603 C.ar    1  UNL1        0.1458
     16 C         139.5418  143.4890  159.9104 C.ar    1  UNL1        0.0739
     17 C         138.2274  142.7579  156.2379 C.2     1  UNL1        0.2457
     18 N         136.7567  142.4731  156.3142 N.am    1  UNL1       -0.3252
     19 O         139.0023  142.3770  155.0114 O.2     1  UNL1       -0.2703
     20 H         136.2480  142.7231  157.1192 H       1  UNL1        0.1453
     21 H         136.3000  142.0361  155.5594 H       1  UNL1        0.1453
     22 O         141.0103  145.4210  160.8382 O.3     1  UNL1       -0.4728
     23 C         140.2366  145.7962  162.0672 C.3     1  UNL1        0.2318
     24 C         141.8857  145.2531  163.2861 C.3     1  UNL1        0.0332
     25 C         140.4068  145.0062  163.3309 C.3     1  UNL1        0.1286
     26 C         138.9280  144.7592  163.3757 C.3     1  UNL1        0.0332
     27 O         140.5770  144.2162  164.5946 O.3     1  UNL1       -0.3831
     28 H         139.7060  144.0254  164.9765 H       1  UNL1        0.2104
     29 C         139.0135  137.7876  164.6535 C.3     1  UNL1        0.1116
     30 C         139.5398  138.6437  165.7672 C.ar    1  UNL1       -0.0129
     31 C         138.6321  139.0592  166.8868 C.ar    1  UNL1       -0.0007
     32 C         139.1583  139.9152  168.0005 C.ar    1  UNL1        0.0369
     33 C         140.5921  140.3557  167.9945 C.ar    1  UNL1        0.1468
     34 C         141.4998  139.9402  166.8749 C.ar    1  UNL1        0.0369
     35 C         140.9736  139.0842  165.7612 C.ar    1  UNL1       -0.0007
     36 O         141.1184  141.2118  169.1082 O.3     1  UNL1       -0.4045
     37 C         140.1818  142.0842  169.8903 C.3     1  UNL1        0.5753
     38 F         139.2452  142.9567  170.6724 F       1  UNL1       -0.1328
     39 F         140.1947  141.0907  171.0140 F       1  UNL1       -0.1328
     40 F         140.1689  143.0778  168.7666 F       1  UNL1       -0.1328
@<TRIPOS>BOND
     1    24    25    1
     2    25    26    1
     3    25    27    1
     4    25    23    1
     5    23    22    1
     6    22    11    1
     7    11    12   ar
     8    12    13   ar
     9    13    14   ar
    10    14    17    1
    11    17    18   am
    12    17    19    2
    13    14    15   ar
    14    15    10    1
    15     1    10    1
    16     1     2    1
    17     2     3    1
    18     3     4    1
    19     4     5   am
    20     5     6    2
    21     5    29    1
    22    29    30    1
    23    30    31   ar
    24    31    32   ar
    25    32    33   ar
    26    33    36    1
    27    36    37    1
    28    37    38    1
    29    37    39    1
    30    37    40    1
    31    33    34   ar
    32    34    35   ar
    33     4     7    1
    34     7     8    1
    35     8     9    1
    36    15    16   ar
    37    16    11   ar
    38     8     1    1
    39    35    30   ar
    40    27    28    1
    41    18    20    1
    42    18    21    1
@<TRIPOS>MOLECULE
*****
 40 42 0 0 0
SMALL
GASTEIGER

@<TRIPOS>ATOM
      1 C         138.5014  140.1591  159.2367 C.3     1  UNL1        0.2016
      2 C         138.1422  139.6357  160.5958 C.3     1  UNL1        0.0679
      3 C         137.9355  140.5884  161.7359 C.3     1  UNL1        0.0973
      4 N         138.0881  142.0645  161.5169 N.am    1  UNL1       -0.2762
      5 C         137.8815  143.0171  162.6569 C.2     1  UNL1        0.2301
      6 O         138.0341  144.4932  162.4379 O.2     1  UNL1       -0.2745
      7 C         138.4474  142.5879  160.1578 C.3     1  UNL1        0.1323
      8 C         138.6540  141.6352  159.0178 C.3     1  UNL1        0.2202
      9 F         139.0133  142.1586  157.6587 F       1  UNL1       -0.2316
     10 O         138.7081  139.2065  158.0967 O.3     1  UNL1       -0.4760
     11 C         142.6219  138.5770  158.2863 C.ar    1  UNL1        0.1417
     12 C         142.8705  137.9342  156.9541 C.ar    1  UNL1        0.0373
     13 C         141.7317  137.7154  156.0027 C.ar    1  UNL1        0.0107
     14 C         140.3442  138.1395  156.3836 C.ar    1  UNL1        0.0872
     15 C         140.0956  138.7823  157.7158 C.ar    1  UNL1        0.1458
     16 C         141.2345  139.0011  158.6672 C.ar    1  UNL1        0.0739
     17 C         139.2054  137.9208  155.4322 C.2     1  UNL1        0.2457
     18 N         138.0668  138.8963  155.3883 N.am    1  UNL1       -0.3252
     19 O         139.2051  136.7265  154.5246 O.2     1  UNL1       -0.2703
     20 H         138.0669  139.6801  155.9840 H       1  UNL1        0.1453
     21 H         137.3193  138.7527  154.7639 H       1  UNL1        0.1453
     22 O         143.7608  138.7958  159.2377 O.3     1  UNL1       -0.4728
     23 C         143.6077  139.7514  160.3837 C.3     1  UNL1        0.2318
     24 C         144.4667  140.8740  161.9654 C.3     1  UNL1        0.0332
     25 C         144.1981  139.4185  161.7219 C.3     1  UNL1        0.1286
     26 C         143.9295  137.9630  161.4783 C.3     1  UNL1        0.0332
     27 O         144.7884  139.0856  163.0600 O.3     1  UNL1       -0.3831
     28 H         144.6159  138.1538  163.2668 H       1  UNL1        0.2104
     29 C         137.5222  142.4937  164.0159 C.3     1  UNL1        0.1116
     30 C         138.6021  142.0560  164.9606 C.ar    1  UNL1       -0.0129
     31 C         139.6311  143.0406  165.4313 C.ar    1  UNL1       -0.0007
     32 C         140.7110  142.6030  166.3760 C.ar    1  UNL1        0.0369
     33 C         140.7617  141.1808  166.8499 C.ar    1  UNL1        0.1468
     34 C         139.7327  140.1962  166.3792 C.ar    1  UNL1        0.0369
     35 C         138.6529  140.6338  165.4345 C.ar    1  UNL1       -0.0007
     36 O         141.8416  140.7431  167.7946 O.3     1  UNL1       -0.4045
     37 C         142.7018  139.5621  167.4550 C.3     1  UNL1        0.5753
     38 F         143.5620  138.3811  167.1154 F       1  UNL1       -0.1328
     39 F         143.0036  140.1669  166.1159 F       1  UNL1       -0.1328
     40 F         142.4000  138.9573  168.7941 F       1  UNL1       -0.1328
@<TRIPOS>BOND
     1    24    25    1
     2    25    26    1
     3    25    27    1
     4    25    23    1
     5    23    22    1
     6    22    11    1
     7    11    12   ar
     8    12    13   ar
     9    13    14   ar
    10    14    17    1
    11    17    18   am
    12    17    19    2
    13    14    15   ar
    14    15    10    1
    15     1    10    1
    16     1     2    1
    17     2     3    1
    18     3     4    1
    19     4     5   am
    20     5     6    2
    21     5    29    1
    22    29    30    1
    23    30    31   ar
    24    31    32   ar
    25    32    33   ar
    26    33    36    1
    27    36    37    1
    28    37    38    1
    29    37    39    1
    30    37    40    1
    31    33    34   ar
    32    34    35   ar
    33     4     7    1
    34     7     8    1
    35     8     9    1
    36    15    16   ar
    37    16    11   ar
    38     8     1    1
    39    35    30   ar
    40    27    28    1
    41    18    20    1
    42    18    21    1
@<TRIPOS>MOLECULE
*****
 40 42 0 0 0
SMALL
GASTEIGER

@<TRIPOS>ATOM
      1 C         143.8697  139.2438  160.0346 C.3     1  UNL1        0.2016
      2 C         143.9138  140.6945  160.4135 C.3     1  UNL1        0.0679
      3 C         144.0883  141.0896  161.8500 C.3     1  UNL1        0.0973
      4 N         144.2187  140.0339  162.9076 N.am    1  UNL1       -0.2762
      5 C         144.3932  140.4290  164.3441 C.2     1  UNL1        0.2301
      6 O         144.5237  139.3734  165.4018 O.2     1  UNL1       -0.2745
      7 C         144.1747  138.5832  162.5288 C.3     1  UNL1        0.1323
      8 C         144.0002  138.1882  161.0923 C.3     1  UNL1        0.2202
      9 F         143.9561  136.7375  160.7135 F       1  UNL1       -0.2316
     10 O         143.6952  138.8487  158.5982 O.3     1  UNL1       -0.4760
     11 C         139.7509  138.8193  158.1604 C.ar    1  UNL1        0.1417
     12 C         139.5996  137.8582  157.0187 C.ar    1  UNL1        0.0373
     13 C         140.8135  137.2274  156.4035 C.ar    1  UNL1        0.0107
     14 C         142.1787  137.5575  156.9300 C.ar    1  UNL1        0.0872
     15 C         142.3300  138.5185  158.0716 C.ar    1  UNL1        0.1458
     16 C         141.1161  139.1494  158.6869 C.ar    1  UNL1        0.0739
     17 C         143.3926  136.9266  156.3148 C.2     1  UNL1        0.2457
     18 N         144.4553  137.7881  155.6997 N.am    1  UNL1       -0.3252
     19 O         143.5437  135.4343  156.3146 O.2     1  UNL1       -0.2703
     20 H         144.3562  138.7676  155.6997 H       1  UNL1        0.1453
     21 H         145.2521  137.3740  155.2959 H       1  UNL1        0.1453
     22 O         138.5370  139.4502  158.7756 O.3     1  UNL1       -0.4728
     23 C         138.6855  140.6392  159.6779 C.3     1  UNL1        0.2318
     24 C         138.2021  142.2028  161.0274 C.3     1  UNL1        0.0332
     25 C         137.8477  140.7495  160.9172 C.3     1  UNL1        0.1286
     26 C         137.4934  139.2961  160.8070 C.3     1  UNL1        0.0332
     27 O         137.0099  140.8597  162.1565 O.3     1  UNL1       -0.3831
     28 H         136.4944  140.0462  162.2718 H       1  UNL1        0.2104
     29 C         144.4373  141.8797  164.7229 C.3     1  UNL1        0.1116
     30 C         143.2087  142.7290  164.5833 C.ar    1  UNL1       -0.0129
     31 C         141.8619  142.1605  164.9194 C.ar    1  UNL1       -0.0007
     32 C         140.6334  143.0097  164.7799 C.ar    1  UNL1        0.0369
     33 C         140.7516  144.4273  164.3042 C.ar    1  UNL1        0.1468
     34 C         142.0984  144.9958  163.9681 C.ar    1  UNL1        0.0369
     35 C         143.3270  144.1466  164.1076 C.ar    1  UNL1       -0.0007
     36 O         139.5230  145.2766  164.1646 O.3     1  UNL1       -0.4045
     37 C         138.2411  144.8544  164.8192 C.3     1  UNL1        0.5753
     38 F         136.9592  144.4322  165.4737 F       1  UNL1       -0.1328
     39 F         138.7838  145.2745  166.1530 F       1  UNL1       -0.1328
     40 F         137.6984  144.4343  163.4854 F       1  UNL1       -0.1328
@<TRIPOS>BOND
     1    24    25    1
     2    25    26    1
     3    25    27    1
     4    25    23    1
     5    23    22    1
     6    22    11    1
     7    11    12   ar
     8    12    13   ar
     9    13    14   ar
    10    14    17    1
    11    17    18   am
    12    17    19    2
    13    14    15   ar
    14    15    10    1
    15     1    10    1
    16     1     2    1
    17     2     3    1
    18     3     4    1
    19     4     5   am
    20     5     6    2
    21     5    29    1
    22    29    30    1
    23    30    31   ar
    24    31    32   ar
    25    32    33   ar
    26    33    36    1
    27    36    37    1
    28    37    38    1
    29    37    39    1
    30    37    40    1
    31    33    34   ar
    32    34    35   ar
    33     4     7    1
    34     7     8    1
    35     8     9    1
    36    15    16   ar
    37    16    11   ar
    38     8     1    1
    39    35    30   ar
    40    27    28    1
    41    18    20    1
    42    18    21    1
@<TRIPOS>MOLECULE
*****
 40 42 0 0 0
SMALL
GASTEIGER

@<TRIPOS>ATOM
      1 C         142.0182  139.0049  162.0762 C.3     1  UNL1        0.2016
      2 C         143.0688  138.8520  161.0165 C.3     1  UNL1        0.0679
      3 C         142.6686  138.5636  159.5999 C.3     1  UNL1        0.0973
      4 N         141.2181  138.4280  159.2430 N.am    1  UNL1       -0.2762
      5 C         140.8180  138.1396  157.8265 C.2     1  UNL1        0.2301
      6 O         139.3674  138.0040  157.4696 O.2     1  UNL1       -0.2745
      7 C         140.1675  138.5809  160.3028 C.3     1  UNL1        0.1323
      8 C         140.5676  138.8693  161.7193 C.3     1  UNL1        0.2202
      9 F         139.5171  139.0222  162.7790 F       1  UNL1       -0.2316
     10 O         142.4183  139.2934  163.4928 O.3     1  UNL1       -0.4760
     11 C         141.2175  142.7908  164.9337 C.ar    1  UNL1        0.1417
     12 C         142.5170  143.5383  164.9830 C.ar    1  UNL1        0.0373
     13 C         143.7836  142.8708  164.5356 C.ar    1  UNL1        0.0107
     14 C         143.7507  141.4559  164.0389 C.ar    1  UNL1        0.0872
     15 C         142.4512  140.7084  163.9896 C.ar    1  UNL1        0.1458
     16 C         141.1846  141.3758  164.4370 C.ar    1  UNL1        0.0739
     17 C         145.0173  140.7884  163.5915 C.2     1  UNL1        0.2457
     18 N         145.2380  139.3320  163.8744 N.am    1  UNL1       -0.3252
     19 O         146.0634  141.5774  162.8612 O.2     1  UNL1       -0.2703
     20 H         144.5514  138.8141  164.3537 H       1  UNL1        0.1453
     21 H         146.0693  138.8939  163.5807 H       1  UNL1        0.1453
     22 O         139.9508  143.4582  165.3811 O.3     1  UNL1       -0.4728
     23 C         139.4461  144.6712  164.6572 C.3     1  UNL1        0.2318
     24 C         137.5664  143.7307  164.3704 C.3     1  UNL1        0.0332
     25 C         138.5030  144.5163  163.5011 C.3     1  UNL1        0.1286
     26 C         139.4396  145.3019  162.6319 C.3     1  UNL1        0.0332
     27 O         137.5599  144.3615  162.3451 O.3     1  UNL1       -0.3831
     28 H         137.8484  144.9300  161.6140 H       1  UNL1        0.2104
     29 C         141.8685  137.9867  156.7667 C.3     1  UNL1        0.1116
     30 C         142.2738  136.6185  156.3043 C.ar    1  UNL1       -0.0129
     31 C         143.2413  135.8086  157.1156 C.ar    1  UNL1       -0.0007
     32 C         143.6466  134.4404  156.6532 C.ar    1  UNL1        0.0369
     33 C         143.0844  133.8821  155.3795 C.ar    1  UNL1        0.1468
     34 C         142.1170  134.6920  154.5683 C.ar    1  UNL1        0.0369
     35 C         141.7117  136.0602  155.0306 C.ar    1  UNL1       -0.0007
     36 O         143.4897  132.5139  154.9171 O.3     1  UNL1       -0.4045
     37 C         143.5770  131.3850  155.9009 C.3     1  UNL1        0.5753
     38 F         143.6644  130.2561  156.8848 F       1  UNL1       -0.1328
     39 F         142.1035  131.4958  156.1589 F       1  UNL1       -0.1328
     40 F         145.0505  131.2742  155.6430 F       1  UNL1       -0.1328
@<TRIPOS>BOND
     1    24    25    1
     2    25    26    1
     3    25    27    1
     4    25    23    1
     5    23    22    1
     6    22    11    1
     7    11    12   ar
     8    12    13   ar
     9    13    14   ar
    10    14    17    1
    11    17    18   am
    12    17    19    2
    13    14    15   ar
    14    15    10    1
    15     1    10    1
    16     1     2    1
    17     2     3    1
    18     3     4    1
    19     4     5   am
    20     5     6    2
    21     5    29    1
    22    29    30    1
    23    30    31   ar
    24    31    32   ar
    25    32    33   ar
    26    33    36    1
    27    36    37    1
    28    37    38    1
    29    37    39    1
    30    37    40    1
    31    33    34   ar
    32    34    35   ar
    33     4     7    1
    34     7     8    1
    35     8     9    1
    36    15    16   ar
    37    16    11   ar
    38     8     1    1
    39    35    30   ar
    40    27    28    1
    41    18    20    1
    42    18    21    1
@<TRIPOS>MOLECULE
*****
 40 42 0 0 0
SMALL
GASTEIGER

@<TRIPOS>ATOM
      1 C         141.4749  138.4642  160.8618 C.3     1  UNL1        0.2016
      2 C         141.0235  137.8522  162.1548 C.3     1  UNL1        0.0679
      3 C         141.8391  138.0417  163.3993 C.3     1  UNL1        0.0973
      4 N         143.1060  138.8432  163.3509 N.am    1  UNL1       -0.2762
      5 C         143.9216  139.0327  164.5955 C.2     1  UNL1        0.2301
      6 O         145.1886  139.8343  164.5471 O.2     1  UNL1       -0.2745
      7 C         143.5574  139.4552  162.0580 C.3     1  UNL1        0.1323
      8 C         142.7419  139.2657  160.8135 C.3     1  UNL1        0.2202
      9 F         143.1932  139.8778  159.5205 F       1  UNL1       -0.2316
     10 O         140.6593  138.2747  159.6173 O.3     1  UNL1       -0.4760
     11 C         138.5178  141.6134  159.4870 C.ar    1  UNL1        0.1417
     12 C         138.1524  141.6593  158.0330 C.ar    1  UNL1        0.0373
     13 C         138.6226  140.5769  157.1070 C.ar    1  UNL1        0.0107
     14 C         139.4582  139.4487  157.6351 C.ar    1  UNL1        0.0872
     15 C         139.8236  139.4029  159.0891 C.ar    1  UNL1        0.1458
     16 C         139.3534  140.4853  160.0151 C.ar    1  UNL1        0.0739
     17 C         139.9284  138.3664  156.7091 C.2     1  UNL1        0.2457
     18 N         139.0785  137.1513  156.4829 N.am    1  UNL1       -0.3252
     19 O         141.2485  138.4991  156.0094 O.2     1  UNL1       -0.2703
     20 H         138.2121  137.0642  156.9422 H       1  UNL1        0.1453
     21 H         139.3871  136.4409  155.8751 H       1  UNL1        0.1453
     22 O         138.0476  142.6958  160.4130 O.3     1  UNL1       -0.4728
     23 C         138.9166  143.1373  161.5531 C.3     1  UNL1        0.2318
     24 C         137.5593  142.3804  162.9970 C.3     1  UNL1        0.0332
     25 C         138.2930  143.6748  162.8070 C.3     1  UNL1        0.1286
     26 C         139.0268  144.9693  162.6170 C.3     1  UNL1        0.0332
     27 O         137.6695  144.2124  164.0609 O.3     1  UNL1       -0.3831
     28 H         138.0937  145.0516  164.2989 H       1  UNL1        0.2104
     29 C         143.4702  138.4207  165.8884 C.3     1  UNL1        0.1116
     30 C         142.9818  139.2976  167.0031 C.ar    1  UNL1       -0.0129
     31 C         142.9186  138.7648  168.4039 C.ar    1  UNL1       -0.0007
     32 C         142.4302  139.6416  169.5185 C.ar    1  UNL1        0.0369
     33 C         142.0049  141.0513  169.2324 C.ar    1  UNL1        0.1468
     34 C         142.0681  141.5842  167.8317 C.ar    1  UNL1        0.0369
     35 C         142.5565  140.7073  166.7170 C.ar    1  UNL1       -0.0007
     36 O         141.5165  141.9283  170.3471 O.3     1  UNL1       -0.4045
     37 C         140.8752  143.2483  170.0369 C.3     1  UNL1        0.5753
     38 F         140.2340  144.5684  169.7266 F       1  UNL1       -0.1328
     39 F         142.1950  143.9347  170.2294 F       1  UNL1       -0.1328
     40 F         139.5554  142.5620  169.8444 F       1  UNL1       -0.1328
@<TRIPOS>BOND
     1    24    25    1
     2    25    26    1
     3    25    27    1
     4    25    23    1
     5    23    22    1
     6    22    11    1
     7    11    12   ar
     8    12    13   ar
     9    13    14   ar
    10    14    17    1
    11    17    18   am
    12    17    19    2
    13    14    15   ar
    14    15    10    1
    15     1    10    1
    16     1     2    1
    17     2     3    1
    18     3     4    1
    19     4     5   am
    20     5     6    2
    21     5    29    1
    22    29    30    1
    23    30    31   ar
    24    31    32   ar
    25    32    33   ar
    26    33    36    1
    27    36    37    1
    28    37    38    1
    29    37    39    1
    30    37    40    1
    31    33    34   ar
    32    34    35   ar
    33     4     7    1
    34     7     8    1
    35     8     9    1
    36    15    16   ar
    37    16    11   ar
    38     8     1    1
    39    35    30   ar
    40    27    28    1
    41    18    20    1
    42    18    21    1
