@<TRIPOS>MOLECULE
*****
 22 24 0 0 0
SMALL
GASTEIGER

@<TRIPOS>ATOM
      1 O         136.6031  141.3840  163.2193 O.3     1  UNL1       -0.4921
      2 C         137.9352  140.7005  163.3109 C.ar    1  UNL1        0.2207
      3 N         138.6408  140.6064  164.6312 N.ar    1  UNL1       -0.1929
      4 C         139.9728  139.9229  164.7228 C.ar    1  UNL1        0.1649
      5 N         140.5994  139.3334  163.4940 N.ar    1  UNL1       -0.2310
      6 C         139.8938  139.4275  162.1736 C.ar    1  UNL1        0.0628
      7 C         138.5617  140.1110  162.0820 C.ar    1  UNL1        0.0552
      8 C         137.8562  140.2050  160.7617 C.3     1  UNL1        0.0897
      9 S         138.4827  139.6155  159.5329 S.3     1  UNL1       -0.1348
     10 C         139.8148  138.9320  159.6245 C.3     1  UNL1        0.0642
     11 C         140.5204  138.8380  160.9448 C.3     1  UNL1        0.0574
     12 H         136.2118  141.7522  163.9869 H       1  UNL1        0.2937
     13 C         140.6784  139.8289  166.0432 C.ar    1  UNL1        0.0359
     14 C         142.1078  139.3776  166.0993 C.ar    1  UNL1        0.0030
     15 C         142.8133  139.2835  167.4196 C.ar    1  UNL1        0.0039
     16 C         142.0895  139.6408  168.6838 C.ar    1  UNL1        0.0714
     17 C         140.6601  140.0922  168.6278 C.ar    1  UNL1        0.0039
     18 C         139.9546  140.1862  167.3074 C.ar    1  UNL1        0.0030
     19 C         142.7950  139.5468  170.0043 C.3     1  UNL1        0.4186
     20 F         143.5006  139.4528  171.3246 F       1  UNL1       -0.1659
     21 F         142.7055  138.0507  169.9455 F       1  UNL1       -0.1659
     22 F         142.8846  141.0430  170.0630 F       1  UNL1       -0.1659
@<TRIPOS>BOND
     1     1     2    1
     2     2     3   ar
     3     3     4   ar
     4     4    13    1
     5    13    14   ar
     6    14    15   ar
     7    15    16   ar
     8    16    19    1
     9    19    20    1
    10    19    21    1
    11    19    22    1
    12    16    17   ar
    13    17    18   ar
    14     4     5   ar
    15     5     6   ar
    16     6     7   ar
    17     7     8    1
    18     8     9    1
    19     9    10    1
    20    10    11    1
    21     7     2   ar
    22    18    13   ar
    23    11     6    1
    24     1    12    1
@<TRIPOS>MOLECULE
*****
 22 24 0 0 0
SMALL
GASTEIGER

@<TRIPOS>ATOM
      1 O         143.2043  138.4729  170.4695 O.3     1  UNL1       -0.4921
      2 C         142.6242  139.2548  169.3284 C.ar    1  UNL1        0.2207
      3 N         142.8224  138.7831  167.9184 N.ar    1  UNL1       -0.1929
      4 C         142.2422  139.5650  166.7774 C.ar    1  UNL1        0.1649
      5 N         141.4638  140.8186  167.0463 N.ar    1  UNL1       -0.2310
      6 C         141.2655  141.2905  168.4563 C.ar    1  UNL1        0.0628
      7 C         141.8457  140.5085  169.5974 C.ar    1  UNL1        0.0552
      8 C         141.6475  140.9803  171.0074 C.3     1  UNL1        0.0897
      9 S         140.8690  142.2339  171.2763 S.3     1  UNL1       -0.1348
     10 C         140.2889  143.0158  170.1353 C.3     1  UNL1        0.0642
     11 C         140.4871  142.5441  168.7253 C.3     1  UNL1        0.0574
     12 H         143.6906  137.6898  170.3015 H       1  UNL1        0.2937
     13 C         142.4405  139.0932  165.3673 C.ar    1  UNL1        0.0359
     14 C         143.6053  139.5939  164.5657 C.ar    1  UNL1        0.0030
     15 C         143.8037  139.1221  163.1558 C.ar    1  UNL1        0.0039
     16 C         142.8371  138.1497  162.5474 C.ar    1  UNL1        0.0714
     17 C         141.6723  137.6490  163.3489 C.ar    1  UNL1        0.0039
     18 C         141.4740  138.1208  164.7589 C.ar    1  UNL1        0.0030
     19 C         143.0354  137.6779  161.1373 C.3     1  UNL1        0.4186
     20 F         143.2336  137.2061  159.7273 F       1  UNL1       -0.1659
     21 F         141.6058  138.0082  160.8258 F       1  UNL1       -0.1659
     22 F         144.4650  137.3475  161.4488 F       1  UNL1       -0.1659
@<TRIPOS>BOND
     1     1     2    1
     2     2     3   ar
     3     3     4   ar
     4     4    13    1
     5    13    14   ar
     6    14    15   ar
     7    15    16   ar
     8    16    19    1
     9    19    20    1
    10    19    21    1
    11    19    22    1
    12    16    17   ar
    13    17    18   ar
    14     4     5   ar
    15     5     6   ar
    16     6     7   ar
    17     7     8    1
    18     8     9    1
    19     9    10    1
    20    10    11    1
    21     7     2   ar
    22    18    13   ar
    23    11     6    1
    24     1    12    1
@<TRIPOS>MOLECULE
*****
 22 24 0 0 0
SMALL
GASTEIGER

@<TRIPOS>ATOM
      1 O         141.4163  145.9744  163.0097 O.3     1  UNL1       -0.4921
      2 C         140.8039  144.6127  163.1535 C.ar    1  UNL1        0.2207
      3 N         140.7111  143.9710  164.5061 N.ar    1  UNL1       -0.1929
      4 C         140.0987  142.6093  164.6498 C.ar    1  UNL1        0.1649
      5 N         139.5791  141.8892  163.4410 N.ar    1  UNL1       -0.2310
      6 C         139.6718  142.5308  162.0882 C.ar    1  UNL1        0.0628
      7 C         140.2842  143.8926  161.9445 C.ar    1  UNL1        0.0552
      8 C         140.3770  144.5342  160.5919 C.3     1  UNL1        0.0897
      9 S         139.8574  143.8141  159.3830 S.3     1  UNL1       -0.1348
     10 C         139.2450  142.4523  159.5268 C.3     1  UNL1        0.0642
     11 C         139.1522  141.8107  160.8794 C.3     1  UNL1        0.0574
     12 H         141.7408  146.4242  163.7649 H       1  UNL1        0.2937
     13 C         140.0059  141.9677  166.0026 C.ar    1  UNL1        0.0359
     14 C         140.5193  142.6907  167.2124 C.ar    1  UNL1        0.0030
     15 C         140.4266  142.0492  168.5651 C.ar    1  UNL1        0.0039
     16 C         139.8204  140.6846  168.7079 C.ar    1  UNL1        0.0714
     17 C         139.3070  139.9616  167.4981 C.ar    1  UNL1        0.0039
     18 C         139.3997  140.6031  166.1454 C.ar    1  UNL1        0.0030
     19 C         139.7276  140.0430  170.0606 C.3     1  UNL1        0.4186
     20 F         139.6348  139.4014  171.4133 F       1  UNL1       -0.1659
     21 F         138.3417  140.5922  170.2261 F       1  UNL1       -0.1659
     22 F         141.1136  139.4937  169.8952 F       1  UNL1       -0.1659
@<TRIPOS>BOND
     1     1     2    1
     2     2     3   ar
     3     3     4   ar
     4     4    13    1
     5    13    14   ar
     6    14    15   ar
     7    15    16   ar
     8    16    19    1
     9    19    20    1
    10    19    21    1
    11    19    22    1
    12    16    17   ar
    13    17    18   ar
    14     4     5   ar
    15     5     6   ar
    16     6     7   ar
    17     7     8    1
    18     8     9    1
    19     9    10    1
    20    10    11    1
    21     7     2   ar
    22    18    13   ar
    23    11     6    1
    24     1    12    1
@<TRIPOS>MOLECULE
*****
 22 24 0 0 0
SMALL
GASTEIGER

@<TRIPOS>ATOM
      1 O         137.7858  144.9498  162.3408 O.3     1  UNL1       -0.4921
      2 C         138.9305  144.1051  162.8162 C.ar    1  UNL1        0.2207
      3 N         138.8791  143.4669  164.1726 N.ar    1  UNL1       -0.1929
      4 C         140.0238  142.6221  164.6480 C.ar    1  UNL1        0.1649
      5 N         141.2200  142.4156  163.7669 N.ar    1  UNL1       -0.2310
      6 C         141.2715  143.0538  162.4103 C.ar    1  UNL1        0.0628
      7 C         140.1268  143.8985  161.9350 C.ar    1  UNL1        0.0552
      8 C         140.1782  144.5367  160.5785 C.3     1  UNL1        0.0897
      9 S         141.3744  144.3301  159.6974 S.3     1  UNL1       -0.1348
     10 C         142.5192  143.4854  160.1728 C.3     1  UNL1        0.0642
     11 C         142.4677  142.8472  161.5292 C.3     1  UNL1        0.0574
     12 H         137.0385  145.0788  162.8912 H       1  UNL1        0.2937
     13 C         139.9723  141.9839  166.0045 C.ar    1  UNL1        0.0359
     14 C         139.4783  140.5754  166.1524 C.ar    1  UNL1        0.0030
     15 C         139.4268  139.9372  167.5089 C.ar    1  UNL1        0.0039
     16 C         139.8693  140.7076  168.7174 C.ar    1  UNL1        0.0714
     17 C         140.3633  142.1161  168.5695 C.ar    1  UNL1        0.0039
     18 C         140.4148  142.7543  167.2131 C.ar    1  UNL1        0.0030
     19 C         139.8178  140.0694  170.0740 C.3     1  UNL1        0.4186
     20 F         139.7663  139.4312  171.4304 F       1  UNL1       -0.1659
     21 F         138.5114  140.7541  170.3465 F       1  UNL1       -0.1659
     22 F         141.1242  139.3846  169.8015 F       1  UNL1       -0.1659
@<TRIPOS>BOND
     1     1     2    1
     2     2     3   ar
     3     3     4   ar
     4     4    13    1
     5    13    14   ar
     6    14    15   ar
     7    15    16   ar
     8    16    19    1
     9    19    20    1
    10    19    21    1
    11    19    22    1
    12    16    17   ar
    13    17    18   ar
    14     4     5   ar
    15     5     6   ar
    16     6     7   ar
    17     7     8    1
    18     8     9    1
    19     9    10    1
    20    10    11    1
    21     7     2   ar
    22    18    13   ar
    23    11     6    1
    24     1    12    1
@<TRIPOS>MOLECULE
*****
 22 24 0 0 0
SMALL
GASTEIGER

@<TRIPOS>ATOM
      1 O         136.8990  139.4917  160.8123 O.3     1  UNL1       -0.4921
      2 C         137.8203  140.3767  161.5984 C.ar    1  UNL1        0.2207
      3 N         138.0229  140.1345  163.0647 N.ar    1  UNL1       -0.1929
      4 C         138.9442  141.0194  163.8508 C.ar    1  UNL1        0.1649
      5 N         139.6630  142.1466  163.1706 N.ar    1  UNL1       -0.2310
      6 C         139.4605  142.3889  161.7041 C.ar    1  UNL1        0.0628
      7 C         138.5391  141.5039  160.9180 C.ar    1  UNL1        0.0552
      8 C         138.3366  141.7461  159.4517 C.3     1  UNL1        0.0897
      9 S         139.0554  142.8733  158.7714 S.3     1  UNL1       -0.1348
     10 C         139.9767  143.7582  159.5575 C.3     1  UNL1        0.0642
     11 C         140.1793  143.5160  161.0239 C.3     1  UNL1        0.0574
     12 H         136.4499  138.7876  161.2372 H       1  UNL1        0.2937
     13 C         139.1468  140.7772  165.3173 C.ar    1  UNL1        0.0359
     14 C         138.4864  139.6059  165.9821 C.ar    1  UNL1        0.0030
     15 C         138.6889  139.3636  167.4485 C.ar    1  UNL1        0.0039
     16 C         139.5518  140.2926  168.2500 C.ar    1  UNL1        0.0714
     17 C         140.2121  141.4639  167.5851 C.ar    1  UNL1        0.0039
     18 C         140.0096  141.7062  166.1188 C.ar    1  UNL1        0.0030
     19 C         139.7543  140.0504  169.7164 C.3     1  UNL1        0.4186
     20 F         139.9569  139.8081  171.1828 F       1  UNL1       -0.1659
     21 F         141.1256  139.5101  169.4377 F       1  UNL1       -0.1659
     22 F         138.3830  140.5906  169.9951 F       1  UNL1       -0.1659
@<TRIPOS>BOND
     1     1     2    1
     2     2     3   ar
     3     3     4   ar
     4     4    13    1
     5    13    14   ar
     6    14    15   ar
     7    15    16   ar
     8    16    19    1
     9    19    20    1
    10    19    21    1
    11    19    22    1
    12    16    17   ar
    13    17    18   ar
    14     4     5   ar
    15     5     6   ar
    16     6     7   ar
    17     7     8    1
    18     8     9    1
    19     9    10    1
    20    10    11    1
    21     7     2   ar
    22    18    13   ar
    23    11     6    1
    24     1    12    1
@<TRIPOS>MOLECULE
*****
 22 24 0 0 0
SMALL
GASTEIGER

@<TRIPOS>ATOM
      1 O         146.4199  141.8613  162.9466 O.3     1  UNL1       -0.4921
      2 C         144.9731  142.1624  163.2037 C.ar    1  UNL1        0.2207
      3 N         144.4420  142.1488  164.6065 N.ar    1  UNL1       -0.1929
      4 C         142.9952  142.4499  164.8637 C.ar    1  UNL1        0.1649
      5 N         142.0795  142.7645  163.7181 N.ar    1  UNL1       -0.2310
      6 C         142.6106  142.7781  162.3152 C.ar    1  UNL1        0.0628
      7 C         144.0574  142.4770  162.0581 C.ar    1  UNL1        0.0552
      8 C         144.5884  142.4906  160.6553 C.3     1  UNL1        0.0897
      9 S         143.6727  142.8052  159.5098 S.3     1  UNL1       -0.1348
     10 C         142.2259  143.1063  159.7669 C.3     1  UNL1        0.0642
     11 C         141.6948  143.0927  161.1697 C.3     1  UNL1        0.0574
     12 H         146.9919  141.6647  163.6622 H       1  UNL1        0.2937
     13 C         142.4642  142.4363  166.2665 C.ar    1  UNL1        0.0359
     14 C         140.9869  142.5265  166.5101 C.ar    1  UNL1        0.0030
     15 C         140.4558  142.5129  167.9128 C.ar    1  UNL1        0.0039
     16 C         141.4021  142.4092  169.0720 C.ar    1  UNL1        0.0714
     17 C         142.8794  142.3190  168.8284 C.ar    1  UNL1        0.0039
     18 C         143.4105  142.3326  167.4257 C.ar    1  UNL1        0.0030
     19 C         140.8710  142.3956  170.4748 C.3     1  UNL1        0.4186
     20 F         140.3400  142.3821  171.8776 F       1  UNL1       -0.1659
     21 F         142.2450  142.6931  170.9978 F       1  UNL1       -0.1659
     22 F         139.4970  142.0981  169.9519 F       1  UNL1       -0.1659
@<TRIPOS>BOND
     1     1     2    1
     2     2     3   ar
     3     3     4   ar
     4     4    13    1
     5    13    14   ar
     6    14    15   ar
     7    15    16   ar
     8    16    19    1
     9    19    20    1
    10    19    21    1
    11    19    22    1
    12    16    17   ar
    13    17    18   ar
    14     4     5   ar
    15     5     6   ar
    16     6     7   ar
    17     7     8    1
    18     8     9    1
    19     9    10    1
    20    10    11    1
    21     7     2   ar
    22    18    13   ar
    23    11     6    1
    24     1    12    1
@<TRIPOS>MOLECULE
*****
 22 24 0 0 0
SMALL
GASTEIGER

@<TRIPOS>ATOM
      1 O         137.4937  143.3619  161.6627 O.3     1  UNL1       -0.4921
      2 C         138.2048  142.1948  162.2809 C.ar    1  UNL1        0.2207
      3 N         138.4986  142.1890  163.7518 N.ar    1  UNL1       -0.1929
      4 C         139.2098  141.0219  164.3700 C.ar    1  UNL1        0.1649
      5 N         139.6272  139.8606  163.5172 N.ar    1  UNL1       -0.2310
      6 C         139.3334  139.8664  162.0462 C.ar    1  UNL1        0.0628
      7 C         138.6222  141.0335  161.4281 C.ar    1  UNL1        0.0552
      8 C         138.3285  141.0393  159.9572 C.3     1  UNL1        0.0897
      9 S         138.7459  139.8781  159.1044 S.3     1  UNL1       -0.1348
     10 C         139.4570  138.7110  159.7226 C.3     1  UNL1        0.0642
     11 C         139.7508  138.7051  161.1935 C.3     1  UNL1        0.0574
     12 H         137.2329  144.0873  162.1954 H       1  UNL1        0.2937
     13 C         139.5036  141.0161  165.8410 C.ar    1  UNL1        0.0359
     14 C         140.1758  142.1971  166.4761 C.ar    1  UNL1        0.0030
     15 C         140.4695  142.1913  167.9470 C.ar    1  UNL1        0.0039
     16 C         140.0911  141.0046  168.7828 C.ar    1  UNL1        0.0714
     17 C         139.4189  139.8237  168.1476 C.ar    1  UNL1        0.0039
     18 C         139.1251  139.8294  166.6767 C.ar    1  UNL1        0.0030
     19 C         140.3849  140.9988  170.2538 C.3     1  UNL1        0.4186
     20 F         140.6786  140.9930  171.7247 F       1  UNL1       -0.1659
     21 F         140.9603  139.6189  170.1334 F       1  UNL1       -0.1659
     22 F         139.8094  142.3788  170.3742 F       1  UNL1       -0.1659
@<TRIPOS>BOND
     1     1     2    1
     2     2     3   ar
     3     3     4   ar
     4     4    13    1
     5    13    14   ar
     6    14    15   ar
     7    15    16   ar
     8    16    19    1
     9    19    20    1
    10    19    21    1
    11    19    22    1
    12    16    17   ar
    13    17    18   ar
    14     4     5   ar
    15     5     6   ar
    16     6     7   ar
    17     7     8    1
    18     8     9    1
    19     9    10    1
    20    10    11    1
    21     7     2   ar
    22    18    13   ar
    23    11     6    1
    24     1    12    1
@<TRIPOS>MOLECULE
*****
 22 24 0 0 0
SMALL
GASTEIGER

@<TRIPOS>ATOM
      1 O         139.1186  146.6407  161.3729 O.3     1  UNL1       -0.4921
      2 C         140.1711  145.5810  161.5115 C.ar    1  UNL1        0.2207
      3 N         140.4822  145.0048  162.8610 N.ar    1  UNL1       -0.1929
      4 C         141.5347  143.9450  162.9996 C.ar    1  UNL1        0.1649
      5 N         142.2762  143.4615  161.7887 N.ar    1  UNL1       -0.2310
      6 C         141.9652  144.0377  160.4391 C.ar    1  UNL1        0.0628
      7 C         140.9127  145.0975  160.3005 C.ar    1  UNL1        0.0552
      8 C         140.6017  145.6737  158.9509 C.3     1  UNL1        0.0897
      9 S         141.3432  145.1901  157.7400 S.3     1  UNL1       -0.1348
     10 C         142.3957  144.1304  157.8786 C.3     1  UNL1        0.0642
     11 C         142.7067  143.5542  159.2282 C.3     1  UNL1        0.0574
     12 H         138.6554  146.9427  162.1293 H       1  UNL1        0.2937
     13 C         141.8457  143.3688  164.3492 C.ar    1  UNL1        0.0359
     14 C         140.7354  143.0821  165.3162 C.ar    1  UNL1        0.0030
     15 C         141.0463  142.5060  166.6657 C.ar    1  UNL1        0.0039
     16 C         142.4675  142.2165  167.0482 C.ar    1  UNL1        0.0714
     17 C         143.5778  142.5032  166.0812 C.ar    1  UNL1        0.0039
     18 C         143.2669  143.0794  164.7317 C.ar    1  UNL1        0.0030
     19 C         142.7785  141.6403  168.3978 C.3     1  UNL1        0.4186
     20 F         143.0895  141.0642  169.7474 F       1  UNL1       -0.1659
     21 F         143.8758  142.6475  168.5750 F       1  UNL1       -0.1659
     22 F         141.6812  140.6330  168.2207 F       1  UNL1       -0.1659
@<TRIPOS>BOND
     1     1     2    1
     2     2     3   ar
     3     3     4   ar
     4     4    13    1
     5    13    14   ar
     6    14    15   ar
     7    15    16   ar
     8    16    19    1
     9    19    20    1
    10    19    21    1
    11    19    22    1
    12    16    17   ar
    13    17    18   ar
    14     4     5   ar
    15     5     6   ar
    16     6     7   ar
    17     7     8    1
    18     8     9    1
    19     9    10    1
    20    10    11    1
    21     7     2   ar
    22    18    13   ar
    23    11     6    1
    24     1    12    1
@<TRIPOS>MOLECULE
*****
 22 24 0 0 0
SMALL
GASTEIGER

@<TRIPOS>ATOM
      1 O         138.6835  139.5013  170.6874 O.3     1  UNL1       -0.4921
      2 C         139.3803  140.1236  169.5138 C.ar    1  UNL1        0.2207
      3 N         138.8532  139.9056  168.1266 N.ar    1  UNL1       -0.1929
      4 C         139.5500  140.5278  166.9530 C.ar    1  UNL1        0.1649
      5 N         140.7740  141.3680  167.1667 N.ar    1  UNL1       -0.2310
      6 C         141.3013  141.5861  168.5541 C.ar    1  UNL1        0.0628
      7 C         140.6044  140.9638  169.7276 C.ar    1  UNL1        0.0552
      8 C         141.1316  141.1818  171.1149 C.3     1  UNL1        0.0897
      9 S         142.3556  142.0220  171.3286 S.3     1  UNL1       -0.1348
     10 C         143.0525  142.6443  170.1550 C.3     1  UNL1        0.0642
     11 C         142.5253  142.4263  168.7678 C.3     1  UNL1        0.0574
     12 H         137.9188  138.9764  170.5538 H       1  UNL1        0.2937
     13 C         139.0228  140.3098  165.5657 C.ar    1  UNL1        0.0359
     14 C         138.3595  141.4361  164.8299 C.ar    1  UNL1        0.0030
     15 C         137.8322  141.2181  163.4426 C.ar    1  UNL1        0.0039
     16 C         137.9683  139.8739  162.7912 C.ar    1  UNL1        0.0714
     17 C         138.6316  138.7476  163.5271 C.ar    1  UNL1        0.0039
     18 C         139.1589  138.9655  164.9143 C.ar    1  UNL1        0.0030
     19 C         137.4411  139.6559  161.4039 C.3     1  UNL1        0.4186
     20 F         136.9139  139.4379  160.0167 F       1  UNL1       -0.1659
     21 F         137.5864  141.1212  161.1184 F       1  UNL1       -0.1659
     22 F         137.2957  138.1905  161.6894 F       1  UNL1       -0.1659
@<TRIPOS>BOND
     1     1     2    1
     2     2     3   ar
     3     3     4   ar
     4     4    13    1
     5    13    14   ar
     6    14    15   ar
     7    15    16   ar
     8    16    19    1
     9    19    20    1
    10    19    21    1
    11    19    22    1
    12    16    17   ar
    13    17    18   ar
    14     4     5   ar
    15     5     6   ar
    16     6     7   ar
    17     7     8    1
    18     8     9    1
    19     9    10    1
    20    10    11    1
    21     7     2   ar
    22    18    13   ar
    23    11     6    1
    24     1    12    1
