@<TRIPOS>MOLECULE
*****
 34 37 0 0 0
SMALL
GASTEIGER

@<TRIPOS>ATOM
      1 N         138.3699  142.9772  163.7208 N.3     1  UNL1       -0.2698
      2 N         140.1512  144.7413  159.9838 N.pl3   1  UNL1       -0.2769
      3 C         139.9459  145.6017  161.1952 C.3     1  UNL1        0.0950
      4 C         139.3521  145.0137  162.4408 C.3     1  UNL1        0.0375
      5 C         138.9637  143.5652  162.4751 C.3     1  UNL1        0.0612
      6 C         139.1690  142.7048  161.2637 C.3     1  UNL1        0.0375
      7 C         139.7628  143.2929  160.0181 C.3     1  UNL1        0.0950
      8 N         140.6688  146.6954  155.1058 N.pl3   1  UNL1       -0.3278
      9 C         140.9829  146.2275  156.4959 C.ar    1  UNL1        0.2099
     10 N         140.0006  145.6641  157.4796 N.ar    1  UNL1       -0.1804
     11 C         140.7450  145.3293  158.7381 C.ar    1  UNL1        0.2395
     12 N         142.1874  145.6858  158.5322 N.ar    1  UNL1       -0.1349
     13 N         142.3345  146.2409  157.1465 N.ar    1  UNL1       -0.2453
     14 H         139.7459  146.6463  154.7667 H       1  UNL1        0.1451
     15 H         141.3856  147.0515  154.5326 H       1  UNL1        0.1451
     16 H         143.1711  146.5583  156.7360 H       1  UNL1        0.1919
     17 C         138.6350  143.6160  165.0518 C.3     1  UNL1        0.0770
     18 C         140.0229  143.6156  165.6208 C.3     1  UNL1        0.0437
     19 C         140.7697  142.3240  165.7755 C.ar    1  UNL1       -0.0207
     20 C         140.8522  141.6615  167.1188 C.ar    1  UNL1       -0.0034
     21 C         141.5990  140.3699  167.2734 C.ar    1  UNL1        0.0111
     22 C         142.2633  139.7406  166.0848 C.ar    1  UNL1        0.0577
     23 CL        143.0101  138.4490  166.2394 Cl      1  UNL1       -0.0822
     24 C         142.1808  140.4031  164.7415 C.ar    1  UNL1        0.0111
     25 C         141.4340  141.6948  164.5869 C.ar    1  UNL1       -0.0034
     26 C         137.5111  141.7504  163.6354 C.3     1  UNL1        0.0992
     27 C         138.0749  140.4125  164.0122 C.ar    1  UNL1       -0.0031
     28 C         138.0770  139.9768  165.4476 C.ar    1  UNL1       -0.0027
     29 C         138.6408  138.6389  165.8245 C.ar    1  UNL1        0.0028
     30 C         139.2025  137.7366  164.7660 C.ar    1  UNL1        0.0366
     31 C         139.2003  138.1721  163.3307 C.ar    1  UNL1        0.1334
     32 O         139.7619  137.2698  162.2723 O.3     1  UNL1       -0.5055
     33 C         138.6365  139.5101  162.9538 C.ar    1  UNL1        0.0337
     34 H         140.1141  136.4340  162.5077 H       1  UNL1        0.2922
@<TRIPOS>BOND
     1     8     9    1
     2     9    10   ar
     3    10    11   ar
     4    11     2    1
     5     2     3    1
     6     3     4    1
     7     4     5    1
     8     5     1    1
     9     1    17    1
    10    17    18    1
    11    18    19    1
    12    19    20   ar
    13    20    21   ar
    14    21    22   ar
    15    22    23    1
    16    22    24   ar
    17    24    25   ar
    18     1    26    1
    19    26    27    1
    20    27    28   ar
    21    28    29   ar
    22    29    30   ar
    23    30    31   ar
    24    31    32    1
    25    31    33   ar
    26     5     6    1
    27     6     7    1
    28    11    12   ar
    29    12    13   ar
    30    13     9   ar
    31     7     2    1
    32    25    19   ar
    33    33    27   ar
    34     8    14    1
    35     8    15    1
    36    32    34    1
    37    13    16    1
@<TRIPOS>MOLECULE
*****
 34 37 0 0 0
SMALL
GASTEIGER

@<TRIPOS>ATOM
      1 N         137.9817  140.9157  163.1882 N.3     1  UNL1       -0.2698
      2 N         139.8388  140.2386  167.2308 N.pl3   1  UNL1       -0.2769
      3 C         138.7979  139.2895  166.7151 C.3     1  UNL1        0.0950
      4 C         138.1789  139.5153  165.3676 C.3     1  UNL1        0.0375
      5 C         138.6008  140.6900  164.5358 C.3     1  UNL1        0.0612
      6 C         139.6416  141.6391  165.0515 C.3     1  UNL1        0.0375
      7 C         140.2606  141.4133  166.3990 C.3     1  UNL1        0.0950
      8 N         143.3957  139.6748  171.0924 N.pl3   1  UNL1       -0.3278
      9 C         142.0928  139.7537  170.3533 C.ar    1  UNL1        0.2099
     10 N         141.9257  140.0228  168.8872 N.ar    1  UNL1       -0.1804
     11 C         140.4578  140.0129  168.5784 C.ar    1  UNL1        0.2395
     12 N         139.7177  139.7375  169.8537 N.ar    1  UNL1       -0.1349
     13 N         140.7282  139.5774  170.9507 N.ar    1  UNL1       -0.2453
     14 H         144.2439  139.8053  170.6100 H       1  UNL1        0.1451
     15 H         143.4026  139.4924  172.0598 H       1  UNL1        0.1451
     16 H         140.5304  139.3895  171.8966 H       1  UNL1        0.1919
     17 C         137.8170  139.7679  162.2368 C.3     1  UNL1        0.0770
     18 C         139.0035  139.2396  161.4862 C.3     1  UNL1        0.0437
     19 C         140.3581  139.2376  162.1303 C.ar    1  UNL1       -0.0207
     20 C         140.7672  138.0959  163.0130 C.ar    1  UNL1       -0.0034
     21 C         142.1219  138.0938  163.6571 C.ar    1  UNL1        0.0111
     22 C         143.0676  139.2335  163.4184 C.ar    1  UNL1        0.0577
     23 CL        144.4222  139.2314  164.0624 Cl      1  UNL1       -0.0822
     24 C         142.6585  140.3751  162.5356 C.ar    1  UNL1        0.0111
     25 C         141.3038  140.3772  161.8916 C.ar    1  UNL1       -0.0034
     26 C         137.5274  142.2893  162.7921 C.3     1  UNL1        0.0992
     27 C         138.4348  143.1785  161.9947 C.ar    1  UNL1       -0.0031
     28 C         138.8526  142.7766  160.6112 C.ar    1  UNL1       -0.0027
     29 C         139.7600  143.6658  159.8138 C.ar    1  UNL1        0.0028
     30 C         140.2495  144.9569  160.3997 C.ar    1  UNL1        0.0366
     31 C         139.8317  145.3589  161.7831 C.ar    1  UNL1        0.1334
     32 O         140.3213  146.6500  162.3691 O.3     1  UNL1       -0.5055
     33 C         138.9243  144.4697  162.5806 C.ar    1  UNL1        0.0337
     34 H         140.8881  147.2055  161.8709 H       1  UNL1        0.2922
@<TRIPOS>BOND
     1     8     9    1
     2     9    10   ar
     3    10    11   ar
     4    11     2    1
     5     2     3    1
     6     3     4    1
     7     4     5    1
     8     5     1    1
     9     1    17    1
    10    17    18    1
    11    18    19    1
    12    19    20   ar
    13    20    21   ar
    14    21    22   ar
    15    22    23    1
    16    22    24   ar
    17    24    25   ar
    18     1    26    1
    19    26    27    1
    20    27    28   ar
    21    28    29   ar
    22    29    30   ar
    23    30    31   ar
    24    31    32    1
    25    31    33   ar
    26     5     6    1
    27     6     7    1
    28    11    12   ar
    29    12    13   ar
    30    13     9   ar
    31     7     2    1
    32    25    19   ar
    33    33    27   ar
    34     8    14    1
    35     8    15    1
    36    32    34    1
    37    13    16    1
@<TRIPOS>MOLECULE
*****
 34 37 0 0 0
SMALL
GASTEIGER

@<TRIPOS>ATOM
      1 N         138.4883  139.3125  163.4858 N.3     1  UNL1       -0.2698
      2 N         139.8473  140.1983  167.6833 N.pl3   1  UNL1       -0.2769
      3 C         140.6705  140.6563  166.5160 C.3     1  UNL1        0.0950
      4 C         140.2175  140.3610  165.1169 C.3     1  UNL1        0.0375
      5 C         138.9413  139.6078  164.8850 C.3     1  UNL1        0.0612
      6 C         138.1180  139.1497  166.0523 C.3     1  UNL1        0.0375
      7 C         138.5711  139.4450  167.4514 C.3     1  UNL1        0.0950
      8 N         142.2622  142.4314  171.8140 N.pl3   1  UNL1       -0.3278
      9 C         141.4103  141.5200  170.9811 C.ar    1  UNL1        0.2099
     10 N         141.2346  141.5927  169.4932 N.ar    1  UNL1       -0.1804
     11 C         140.3003  140.4935  169.0825 C.ar    1  UNL1        0.2395
     12 N         139.8985  139.7414  170.3165 N.ar    1  UNL1       -0.1349
     13 N         140.5845  140.3757  171.4899 N.ar    1  UNL1       -0.2453
     14 H         142.7701  143.1580  171.3859 H       1  UNL1        0.1451
     15 H         142.3133  142.3030  172.7887 H       1  UNL1        0.1451
     16 H         140.5065  140.0911  172.4291 H       1  UNL1        0.1919
     17 C         138.8910  138.0290  162.8222 C.3     1  UNL1        0.0770
     18 C         140.0178  138.0179  161.8322 C.3     1  UNL1        0.0437
     19 C         141.2948  138.7418  162.1411 C.ar    1  UNL1       -0.0207
     20 C         142.3090  138.1177  163.0531 C.ar    1  UNL1       -0.0034
     21 C         143.5859  138.8415  163.3620 C.ar    1  UNL1        0.0111
     22 C         143.8486  140.1896  162.7589 C.ar    1  UNL1        0.0577
     23 CL        145.1255  140.9135  163.0678 Cl      1  UNL1       -0.0822
     24 C         142.8344  140.8137  161.8468 C.ar    1  UNL1        0.0111
     25 C         141.5575  140.0898  161.5379 C.ar    1  UNL1       -0.0034
     26 C         137.6326  140.3008  162.7503 C.3     1  UNL1        0.0992
     27 C         137.9399  141.7667  162.8329 C.ar    1  UNL1       -0.0031
     28 C         137.5508  142.5469  164.0536 C.ar    1  UNL1       -0.0027
     29 C         137.8581  144.0127  164.1362 C.ar    1  UNL1        0.0028
     30 C         138.5544  144.6984  162.9982 C.ar    1  UNL1        0.0366
     31 C         138.9434  143.9182  161.7776 C.ar    1  UNL1        0.1334
     32 O         139.6398  144.6039  160.6396 O.3     1  UNL1       -0.5055
     33 C         138.6362  142.4523  161.6949 C.ar    1  UNL1        0.0337
     34 H         139.8317  145.5195  160.6912 H       1  UNL1        0.2922
@<TRIPOS>BOND
     1     8     9    1
     2     9    10   ar
     3    10    11   ar
     4    11     2    1
     5     2     3    1
     6     3     4    1
     7     4     5    1
     8     5     1    1
     9     1    17    1
    10    17    18    1
    11    18    19    1
    12    19    20   ar
    13    20    21   ar
    14    21    22   ar
    15    22    23    1
    16    22    24   ar
    17    24    25   ar
    18     1    26    1
    19    26    27    1
    20    27    28   ar
    21    28    29   ar
    22    29    30   ar
    23    30    31   ar
    24    31    32    1
    25    31    33   ar
    26     5     6    1
    27     6     7    1
    28    11    12   ar
    29    12    13   ar
    30    13     9   ar
    31     7     2    1
    32    25    19   ar
    33    33    27   ar
    34     8    14    1
    35     8    15    1
    36    32    34    1
    37    13    16    1
@<TRIPOS>MOLECULE
*****
 34 37 0 0 0
SMALL
GASTEIGER

@<TRIPOS>ATOM
      1 N         137.9490  140.2331  163.2541 N.3     1  UNL1       -0.2698
      2 N         139.4788  140.1664  167.4855 N.pl3   1  UNL1       -0.2769
      3 C         139.9264  141.2441  166.5431 C.3     1  UNL1        0.0950
      4 C         139.4164  141.2664  165.1327 C.3     1  UNL1        0.0375
      5 C         138.4589  140.2109  164.6646 C.3     1  UNL1        0.0612
      6 C         138.0114  139.1331  165.6070 C.3     1  UNL1        0.0375
      7 C         138.5213  139.1109  167.0175 C.3     1  UNL1        0.0950
      8 N         142.6986  140.3762  171.6653 N.pl3   1  UNL1       -0.3278
      9 C         141.4688  140.2406  170.8173 C.ar    1  UNL1        0.2099
     10 N         141.4134  140.3425  169.3218 N.ar    1  UNL1       -0.1804
     11 C         139.9888  140.1441  168.8961 C.ar    1  UNL1        0.2395
     12 N         139.1637  139.9196  170.1284 N.ar    1  UNL1       -0.1349
     13 N         140.0784  139.9792  171.3158 N.ar    1  UNL1       -0.2453
     14 H         143.5712  140.5483  171.2431 H       1  UNL1        0.1451
     15 H         142.6332  140.2931  172.6441 H       1  UNL1        0.1451
     16 H         139.8128  139.8665  172.2571 H       1  UNL1        0.1919
     17 C         137.3248  141.4802  162.7019 C.3     1  UNL1        0.0770
     18 C         138.0463  142.2818  161.6592 C.3     1  UNL1        0.0437
     19 C         139.3773  142.8973  161.9745 C.ar    1  UNL1       -0.0207
     20 C         140.6418  142.1855  161.5944 C.ar    1  UNL1       -0.0034
     21 C         141.9728  142.8011  161.9096 C.ar    1  UNL1        0.0111
     22 C         142.0394  144.1286  162.6050 C.ar    1  UNL1        0.0577
     23 CL        143.3704  144.7442  162.9203 Cl      1  UNL1       -0.0822
     24 C         140.7749  144.8404  162.9851 C.ar    1  UNL1        0.0111
     25 C         139.4439  144.2247  162.6698 C.ar    1  UNL1       -0.0034
     26 C         138.0633  139.0082  162.3959 C.3     1  UNL1        0.0992
     27 C         139.2847  138.7951  161.5518 C.ar    1  UNL1       -0.0031
     28 C         139.2503  139.1185  160.0874 C.ar    1  UNL1       -0.0027
     29 C         140.4718  138.9054  159.2434 C.ar    1  UNL1        0.0028
     30 C         141.7278  138.3690  159.8636 C.ar    1  UNL1        0.0366
     31 C         141.7623  138.0456  161.3279 C.ar    1  UNL1        0.1334
     32 O         143.0183  137.5091  161.9481 O.3     1  UNL1       -0.5055
     33 C         140.5407  138.2587  162.1720 C.ar    1  UNL1        0.0337
     34 H         143.7813  137.3760  161.4208 H       1  UNL1        0.2922
@<TRIPOS>BOND
     1     8     9    1
     2     9    10   ar
     3    10    11   ar
     4    11     2    1
     5     2     3    1
     6     3     4    1
     7     4     5    1
     8     5     1    1
     9     1    17    1
    10    17    18    1
    11    18    19    1
    12    19    20   ar
    13    20    21   ar
    14    21    22   ar
    15    22    23    1
    16    22    24   ar
    17    24    25   ar
    18     1    26    1
    19    26    27    1
    20    27    28   ar
    21    28    29   ar
    22    29    30   ar
    23    30    31   ar
    24    31    32    1
    25    31    33   ar
    26     5     6    1
    27     6     7    1
    28    11    12   ar
    29    12    13   ar
    30    13     9   ar
    31     7     2    1
    32    25    19   ar
    33    33    27   ar
    34     8    14    1
    35     8    15    1
    36    32    34    1
    37    13    16    1
@<TRIPOS>MOLECULE
*****
 34 37 0 0 0
SMALL
GASTEIGER

@<TRIPOS>ATOM
      1 N         139.6043  138.4136  161.8854 N.3     1  UNL1       -0.2698
      2 N         142.8506  139.8857  159.1386 N.pl3   1  UNL1       -0.2769
      3 C         141.6283  139.2278  158.5702 C.3     1  UNL1        0.0950
      4 C         140.5463  138.7371  159.4858 C.3     1  UNL1        0.0375
      5 C         140.6865  138.9043  160.9698 C.3     1  UNL1        0.0612
      6 C         141.9087  139.5622  161.5383 C.3     1  UNL1        0.0375
      7 C         142.9908  140.0529  160.6227 C.3     1  UNL1        0.0950
      8 N         146.5462  142.9279  156.9096 N.pl3   1  UNL1       -0.3278
      9 C         145.6314  141.7748  157.1985 C.ar    1  UNL1        0.2099
     10 N         144.6230  141.7056  158.3068 N.ar    1  UNL1       -0.1804
     11 C         143.9327  140.3764  158.2231 C.ar    1  UNL1        0.2395
     12 N         144.5146  139.6242  157.0631 N.ar    1  UNL1       -0.1349
     13 N         145.5645  140.4884  156.4299 N.ar    1  UNL1       -0.2453
     14 H         146.5157  143.7339  157.4741 H       1  UNL1        0.1451
     15 H         147.1772  142.8788  156.1555 H       1  UNL1        0.1451
     16 H         146.1132  140.2527  155.6472 H       1  UNL1        0.1919
     17 C         138.1638  138.6279  161.5264 C.3     1  UNL1        0.0770
     18 C         137.6522  140.0152  161.2737 C.3     1  UNL1        0.0437
     19 C         138.0327  141.1347  162.1968 C.ar    1  UNL1       -0.0207
     20 C         137.3055  141.3154  163.4962 C.ar    1  UNL1       -0.0034
     21 C         137.6861  142.4349  164.4192 C.ar    1  UNL1        0.0111
     22 C         138.7939  143.3736  164.0428 C.ar    1  UNL1        0.0577
     23 CL        139.1745  144.4930  164.9658 Cl      1  UNL1       -0.0822
     24 C         139.5212  143.1928  162.7434 C.ar    1  UNL1        0.0111
     25 C         139.1405  142.0733  161.8204 C.ar    1  UNL1       -0.0034
     26 C         139.9628  137.7086  163.1599 C.3     1  UNL1        0.0992
     27 C         139.5151  138.2677  164.4778 C.ar    1  UNL1       -0.0031
     28 C         140.1378  139.5244  165.0098 C.ar    1  UNL1       -0.0027
     29 C         139.6902  140.0835  166.3277 C.ar    1  UNL1        0.0028
     30 C         138.6197  139.3860  167.1137 C.ar    1  UNL1        0.0366
     31 C         137.9970  138.1294  166.5817 C.ar    1  UNL1        0.1334
     32 O         136.9266  137.4319  167.3677 O.3     1  UNL1       -0.5055
     33 C         138.4447  137.5702  165.2637 C.ar    1  UNL1        0.0337
     34 H         136.6470  137.7812  168.1909 H       1  UNL1        0.2922
@<TRIPOS>BOND
     1     8     9    1
     2     9    10   ar
     3    10    11   ar
     4    11     2    1
     5     2     3    1
     6     3     4    1
     7     4     5    1
     8     5     1    1
     9     1    17    1
    10    17    18    1
    11    18    19    1
    12    19    20   ar
    13    20    21   ar
    14    21    22   ar
    15    22    23    1
    16    22    24   ar
    17    24    25   ar
    18     1    26    1
    19    26    27    1
    20    27    28   ar
    21    28    29   ar
    22    29    30   ar
    23    30    31   ar
    24    31    32    1
    25    31    33   ar
    26     5     6    1
    27     6     7    1
    28    11    12   ar
    29    12    13   ar
    30    13     9   ar
    31     7     2    1
    32    25    19   ar
    33    33    27   ar
    34     8    14    1
    35     8    15    1
    36    32    34    1
    37    13    16    1
@<TRIPOS>MOLECULE
*****
 34 37 0 0 0
SMALL
GASTEIGER

@<TRIPOS>ATOM
      1 N         138.6753  139.4409  161.9559 N.3     1  UNL1       -0.2698
      2 N         142.2648  140.3249  159.3900 N.pl3   1  UNL1       -0.2769
      3 C         142.2720  140.6961  160.8433 C.3     1  UNL1        0.0950
      4 C         141.0755  140.4014  161.6986 C.3     1  UNL1        0.0375
      5 C         139.8718  139.7356  161.1005 C.3     1  UNL1        0.0612
      6 C         139.8645  139.3643  159.6473 C.3     1  UNL1        0.0375
      7 C         141.0610  139.6590  158.7920 C.3     1  UNL1        0.0950
      8 N         146.2669  142.8557  157.0534 N.pl3   1  UNL1       -0.3278
      9 C         145.3009  141.7828  157.4607 C.ar    1  UNL1        0.2099
     10 N         144.1619  141.9412  158.4238 N.ar    1  UNL1       -0.1804
     11 C         143.4613  140.6195  158.5346 C.ar    1  UNL1        0.2395
     12 N         144.1673  139.6442  157.6400 N.ar    1  UNL1       -0.1349
     13 N         145.3042  140.3632  156.9763 N.ar    1  UNL1       -0.2453
     14 H         146.1826  143.7621  157.4283 H       1  UNL1        0.1451
     15 H         146.9852  142.6534  156.4113 H       1  UNL1        0.1451
     16 H         145.9408  139.9720  156.3352 H       1  UNL1        0.1919
     17 C         138.5381  138.1020  162.6180 C.3     1  UNL1        0.0770
     18 C         139.4958  137.6985  163.6997 C.3     1  UNL1        0.0437
     19 C         139.4733  138.4044  165.0230 C.ar    1  UNL1       -0.0207
     20 C         140.6753  139.1751  165.4825 C.ar    1  UNL1       -0.0034
     21 C         140.6528  139.8810  166.8058 C.ar    1  UNL1        0.0111
     22 C         139.4282  139.8163  167.6697 C.ar    1  UNL1        0.0577
     23 CL        139.4057  140.5222  168.9930 Cl      1  UNL1       -0.0822
     24 C         138.2261  139.0456  167.2102 C.ar    1  UNL1        0.0111
     25 C         138.2487  138.3397  165.8868 C.ar    1  UNL1       -0.0034
     26 C         137.6160  140.4852  162.1491 C.3     1  UNL1        0.0992
     27 C         137.9452  141.7653  162.8582 C.ar    1  UNL1       -0.0031
     28 C         138.1478  141.7687  164.3446 C.ar    1  UNL1       -0.0027
     29 C         138.4770  143.0487  165.0537 C.ar    1  UNL1        0.0028
     30 C         138.6038  144.3255  164.2767 C.ar    1  UNL1        0.0366
     31 C         138.4013  144.3221  162.7904 C.ar    1  UNL1        0.1334
     32 O         138.5281  145.5989  162.0133 O.3     1  UNL1       -0.5055
     33 C         138.0720  143.0420  162.0812 C.ar    1  UNL1        0.0337
     34 H         138.7338  146.3985  162.4564 H       1  UNL1        0.2922
@<TRIPOS>BOND
     1     8     9    1
     2     9    10   ar
     3    10    11   ar
     4    11     2    1
     5     2     3    1
     6     3     4    1
     7     4     5    1
     8     5     1    1
     9     1    17    1
    10    17    18    1
    11    18    19    1
    12    19    20   ar
    13    20    21   ar
    14    21    22   ar
    15    22    23    1
    16    22    24   ar
    17    24    25   ar
    18     1    26    1
    19    26    27    1
    20    27    28   ar
    21    28    29   ar
    22    29    30   ar
    23    30    31   ar
    24    31    32    1
    25    31    33   ar
    26     5     6    1
    27     6     7    1
    28    11    12   ar
    29    12    13   ar
    30    13     9   ar
    31     7     2    1
    32    25    19   ar
    33    33    27   ar
    34     8    14    1
    35     8    15    1
    36    32    34    1
    37    13    16    1
@<TRIPOS>MOLECULE
*****
 34 37 0 0 0
SMALL
GASTEIGER

@<TRIPOS>ATOM
      1 N         138.6110  143.2805  163.8758 N.3     1  UNL1       -0.2698
      2 N         140.3436  141.2637  167.5063 N.pl3   1  UNL1       -0.2769
      3 C         139.4369  140.5016  166.5860 C.3     1  UNL1        0.0950
      4 C         138.8594  141.1738  165.3759 C.3     1  UNL1        0.0375
      5 C         139.1885  142.6083  165.0860 C.3     1  UNL1        0.0612
      6 C         140.0952  143.3705  166.0063 C.3     1  UNL1        0.0375
      7 C         140.6727  142.6982  167.2164 C.3     1  UNL1        0.0950
      8 N         143.7263  139.6946  171.2447 N.pl3   1  UNL1       -0.3278
      9 C         142.4761  139.8703  170.4349 C.ar    1  UNL1        0.2099
     10 N         142.3384  140.7031  169.1950 N.ar    1  UNL1       -0.1804
     11 C         140.9211  140.5915  168.7165 C.ar    1  UNL1        0.2395
     12 N         140.1828  139.6896  169.6607 N.ar    1  UNL1       -0.1349
     13 N         141.1438  139.2438  170.7227 N.ar    1  UNL1       -0.2453
     14 H         144.5563  140.1496  170.9738 H       1  UNL1        0.1451
     15 H         143.7170  139.1243  172.0472 H       1  UNL1        0.1451
     16 H         140.9365  138.6452  171.4763 H       1  UNL1        0.1919
     17 C         139.0578  144.6623  163.5005 C.3     1  UNL1        0.0770
     18 C         140.1860  144.8479  162.5295 C.3     1  UNL1        0.0437
     19 C         141.5059  144.1795  162.7766 C.ar    1  UNL1       -0.0207
     20 C         141.7483  142.7882  162.2710 C.ar    1  UNL1       -0.0034
     21 C         143.0681  142.1197  162.5181 C.ar    1  UNL1        0.0111
     22 C         144.1456  142.8425  163.2709 C.ar    1  UNL1        0.0577
     23 CL        145.4655  142.1741  163.5180 Cl      1  UNL1       -0.0822
     24 C         143.9033  144.2338  163.7764 C.ar    1  UNL1        0.0111
     25 C         142.5833  144.9023  163.5293 C.ar    1  UNL1       -0.0034
     26 C         137.5865  142.5709  163.0409 C.3     1  UNL1        0.0992
     27 C         138.0232  141.6407  161.9482 C.ar    1  UNL1       -0.0031
     28 C         138.4614  142.1926  160.6240 C.ar    1  UNL1       -0.0027
     29 C         138.8980  141.2624  159.5313 C.ar    1  UNL1        0.0028
     30 C         138.8966  139.7804  159.7627 C.ar    1  UNL1        0.0366
     31 C         138.4585  139.2285  161.0869 C.ar    1  UNL1        0.1334
     32 O         138.4570  137.7465  161.3183 O.3     1  UNL1       -0.5055
     33 C         138.0218  140.1587  162.1797 C.ar    1  UNL1        0.0337
     34 H         138.7298  137.1654  160.6357 H       1  UNL1        0.2922
@<TRIPOS>BOND
     1     8     9    1
     2     9    10   ar
     3    10    11   ar
     4    11     2    1
     5     2     3    1
     6     3     4    1
     7     4     5    1
     8     5     1    1
     9     1    17    1
    10    17    18    1
    11    18    19    1
    12    19    20   ar
    13    20    21   ar
    14    21    22   ar
    15    22    23    1
    16    22    24   ar
    17    24    25   ar
    18     1    26    1
    19    26    27    1
    20    27    28   ar
    21    28    29   ar
    22    29    30   ar
    23    30    31   ar
    24    31    32    1
    25    31    33   ar
    26     5     6    1
    27     6     7    1
    28    11    12   ar
    29    12    13   ar
    30    13     9   ar
    31     7     2    1
    32    25    19   ar
    33    33    27   ar
    34     8    14    1
    35     8    15    1
    36    32    34    1
    37    13    16    1
@<TRIPOS>MOLECULE
*****
 34 37 0 0 0
SMALL
GASTEIGER

@<TRIPOS>ATOM
      1 N         142.9723  140.6073  165.8448 N.3     1  UNL1       -0.2698
      2 N         141.7197  143.1392  162.3419 N.pl3   1  UNL1       -0.2769
      3 C         143.1633  142.7763  162.5268 C.3     1  UNL1        0.0950
      4 C         143.5808  141.9324  163.6944 C.3     1  UNL1        0.0375
      5 C         142.5547  141.4513  164.6771 C.3     1  UNL1        0.0612
      6 C         141.1111  141.8142  164.4922 C.3     1  UNL1        0.0375
      7 C         140.6936  142.6581  163.3245 C.3     1  UNL1        0.0950
      8 N         141.8842  146.1247  157.9898 N.pl3   1  UNL1       -0.3278
      9 C         141.3778  145.3555  159.1737 C.ar    1  UNL1        0.2099
     10 N         142.2186  144.5983  160.1584 N.ar    1  UNL1       -0.1804
     11 C         141.3022  143.9832  161.1742 C.ar    1  UNL1        0.2395
     12 N         139.8949  144.3602  160.8173 N.ar    1  UNL1       -0.1349
     13 N         139.9416  145.2083  159.5809 N.ar    1  UNL1       -0.2453
     14 H         142.8502  146.1629  157.8041 H       1  UNL1        0.1451
     15 H         141.2504  146.5915  157.3983 H       1  UNL1        0.1451
     16 H         139.1658  145.5997  159.1180 H       1  UNL1        0.1919
     17 C         143.4844  139.2156  165.6193 C.3     1  UNL1        0.0770
     18 C         142.5270  138.0615  165.5788 C.3     1  UNL1        0.0437
     19 C         141.4547  138.0129  164.5311 C.ar    1  UNL1       -0.0207
     20 C         141.8216  138.0866  163.0785 C.ar    1  UNL1       -0.0034
     21 C         140.7493  138.0380  162.0308 C.ar    1  UNL1        0.0111
     22 C         139.3101  137.9156  162.4356 C.ar    1  UNL1        0.0577
     23 CL        138.2378  137.8670  161.3879 Cl      1  UNL1       -0.0822
     24 C         138.9433  137.8419  163.8882 C.ar    1  UNL1        0.0111
     25 C         140.0156  137.8905  164.9359 C.ar    1  UNL1       -0.0034
     26 C         142.8777  141.1551  167.2380 C.3     1  UNL1        0.0992
     27 C         141.6977  140.8149  168.0992 C.ar    1  UNL1       -0.0031
     28 C         140.4054  140.3901  167.4670 C.ar    1  UNL1       -0.0027
     29 C         139.2254  140.0499  168.3281 C.ar    1  UNL1        0.0028
     30 C         139.3375  140.1344  169.8215 C.ar    1  UNL1        0.0366
     31 C         140.6297  140.5592  170.4538 C.ar    1  UNL1        0.1334
     32 O         140.7418  140.6438  171.9472 O.3     1  UNL1       -0.5055
     33 C         141.8098  140.8995  169.5926 C.ar    1  UNL1        0.0337
     34 H         140.0046  140.4313  172.4851 H       1  UNL1        0.2922
@<TRIPOS>BOND
     1     8     9    1
     2     9    10   ar
     3    10    11   ar
     4    11     2    1
     5     2     3    1
     6     3     4    1
     7     4     5    1
     8     5     1    1
     9     1    17    1
    10    17    18    1
    11    18    19    1
    12    19    20   ar
    13    20    21   ar
    14    21    22   ar
    15    22    23    1
    16    22    24   ar
    17    24    25   ar
    18     1    26    1
    19    26    27    1
    20    27    28   ar
    21    28    29   ar
    22    29    30   ar
    23    30    31   ar
    24    31    32    1
    25    31    33   ar
    26     5     6    1
    27     6     7    1
    28    11    12   ar
    29    12    13   ar
    30    13     9   ar
    31     7     2    1
    32    25    19   ar
    33    33    27   ar
    34     8    14    1
    35     8    15    1
    36    32    34    1
    37    13    16    1
@<TRIPOS>MOLECULE
*****
 34 37 0 0 0
SMALL
GASTEIGER

@<TRIPOS>ATOM
      1 N         141.5647  143.6012  164.7387 N.3     1  UNL1       -0.2698
      2 N         141.1665  145.0872  160.5098 N.pl3   1  UNL1       -0.2769
      3 C         142.2039  144.0583  160.8486 C.3     1  UNL1        0.0950
      4 C         142.3367  143.5629  162.2582 C.3     1  UNL1        0.0375
      5 C         141.4319  144.0966  163.3290 C.3     1  UNL1        0.0612
      6 C         140.3944  145.1255  162.9902 C.3     1  UNL1        0.0375
      7 C         140.2617  145.6209  161.5806 C.3     1  UNL1        0.0950
      8 N         139.0980  146.7629  155.9497 N.pl3   1  UNL1       -0.3278
      9 C         140.0829  146.3528  157.0041 C.ar    1  UNL1        0.2099
     10 N         139.7479  145.8866  158.3899 N.ar    1  UNL1       -0.1804
     11 C         141.0337  145.5826  159.1002 C.ar    1  UNL1        0.2395
     12 N         142.1633  145.8609  158.1533 N.ar    1  UNL1       -0.1349
     13 N         141.5757  146.3369  156.8579 N.ar    1  UNL1       -0.2453
     14 H         138.1327  146.7393  156.1418 H       1  UNL1        0.1451
     15 H         139.4169  147.0557  155.0655 H       1  UNL1        0.1451
     16 H         142.0811  146.5938  156.0530 H       1  UNL1        0.1919
     17 C         142.9151  143.2402  165.2827 C.3     1  UNL1        0.0770
     18 C         143.6521  142.0544  164.7342 C.3     1  UNL1        0.0437
     19 C         142.9847  140.7119  164.6885 C.ar    1  UNL1       -0.0207
     20 C         142.2293  140.2911  163.4628 C.ar    1  UNL1       -0.0034
     21 C         141.5618  138.9486  163.4171 C.ar    1  UNL1        0.0111
     22 C         141.6497  138.0268  164.5972 C.ar    1  UNL1        0.0577
     23 CL        140.9823  136.6843  164.5515 Cl      1  UNL1       -0.0822
     24 C         142.4051  138.4475  165.8229 C.ar    1  UNL1        0.0111
     25 C         143.0726  139.7901  165.8685 C.ar    1  UNL1       -0.0034
     26 C         140.3470  143.4669  165.6042 C.3     1  UNL1        0.0992
     27 C         139.8681  142.1074  166.0193 C.ar    1  UNL1       -0.0031
     28 C         139.0424  141.2830  165.0767 C.ar    1  UNL1       -0.0027
     29 C         138.5635  139.9234  165.4918 C.ar    1  UNL1        0.0028
     30 C         138.9103  139.3883  166.8495 C.ar    1  UNL1        0.0366
     31 C         139.7360  140.2127  167.7921 C.ar    1  UNL1        0.1334
     32 O         140.0828  139.6776  169.1498 O.3     1  UNL1       -0.5055
     33 C         140.2150  141.5723  167.3770 C.ar    1  UNL1        0.0337
     34 H         139.7837  138.8283  169.4091 H       1  UNL1        0.2922
@<TRIPOS>BOND
     1     8     9    1
     2     9    10   ar
     3    10    11   ar
     4    11     2    1
     5     2     3    1
     6     3     4    1
     7     4     5    1
     8     5     1    1
     9     1    17    1
    10    17    18    1
    11    18    19    1
    12    19    20   ar
    13    20    21   ar
    14    21    22   ar
    15    22    23    1
    16    22    24   ar
    17    24    25   ar
    18     1    26    1
    19    26    27    1
    20    27    28   ar
    21    28    29   ar
    22    29    30   ar
    23    30    31   ar
    24    31    32    1
    25    31    33   ar
    26     5     6    1
    27     6     7    1
    28    11    12   ar
    29    12    13   ar
    30    13     9   ar
    31     7     2    1
    32    25    19   ar
    33    33    27   ar
    34     8    14    1
    35     8    15    1
    36    32    34    1
    37    13    16    1
