@<TRIPOS>MOLECULE
*****
 32 36 0 0 0
SMALL
GASTEIGER

@<TRIPOS>ATOM
      1 C         138.8554  138.0669  162.9629 C.3     1  UNL1        0.0731
      2 N         139.9028  138.3390  164.0016 N.3     1  UNL1       -0.2712
      3 C         141.2664  137.7170  164.0628 C.3     1  UNL1        0.0738
      4 C         141.9767  138.2745  165.2605 C.3     1  UNL1        0.0372
      5 C         143.2585  138.2346  166.0386 C.3     1  UNL1        0.0245
      6 C         143.1262  139.1764  167.1986 C.3     1  UNL1        0.0910
      7 N         141.7625  139.7984  167.1374 N.pl3   1  UNL1       -0.3042
      8 C         141.0521  139.2409  165.9396 C.3     1  UNL1        0.0902
      9 C         139.7703  139.2808  165.1616 C.3     1  UNL1        0.0921
     10 C         141.2068  140.8016  168.1042 C.ar    1  UNL1        0.1034
     11 C         140.8555  142.1818  167.6337 C.ar    1  UNL1        0.1555
     12 F         141.0599  142.5590  166.1963 F       1  UNL1       -0.2028
     13 C         140.2999  143.1851  168.6006 C.ar    1  UNL1        0.0311
     14 C         140.0955  142.8080  170.0379 C.ar    1  UNL1        0.0047
     15 C         140.4467  141.4277  170.5085 C.ar    1  UNL1        0.0311
     16 C         141.0024  140.4245  169.5417 C.ar    1  UNL1        0.1555
     17 F         141.3537  139.0442  170.0122 F       1  UNL1       -0.2028
     18 C         137.9806  139.1813  162.4700 C.3     1  UNL1        0.0294
     19 C         137.5586  139.2234  161.0312 C.3     1  UNL1        0.0666
     20 S         138.2841  140.1095  160.0625 S.3     1  UNL1       -0.0756
     21 C         141.1976  140.5743  161.4572 C.3     1  UNL1        0.1340
     22 N         140.1814  141.6375  161.1627 N.ar    1  UNL1       -0.2872
     23 C         138.8422  141.4239  160.5216 C.ar    1  UNL1        0.1933
     24 N         138.1591  142.7555  160.4203 N.ar    1  UNL1       -0.1221
     25 N         139.0760  143.7921  160.9987 N.ar    1  UNL1       -0.1266
     26 C         140.3260  143.1012  161.4576 C.ar    1  UNL1        0.1862
     27 C         141.5121  143.7586  162.0987 C.ar    1  UNL1        0.1362
     28 C         142.8705  143.6257  161.4766 C.ar    1  UNL1        0.1211
     29 N         144.0566  144.2830  162.1177 N.ar    1  UNL1       -0.2390
     30 C         143.8842  145.0732  163.3811 C.ar    1  UNL1        0.1195
     31 C         142.5258  145.2061  164.0032 C.ar    1  UNL1        0.1196
     32 N         141.3397  144.5487  163.3620 N.ar    1  UNL1       -0.2375
@<TRIPOS>BOND
     1    21    22    1
     2    22    23   ar
     3    23    20    1
     4    20    19    1
     5    19    18    1
     6    18     1    1
     7     1     2    1
     8     2     3    1
     9     3     4    1
    10     4     5    1
    11     5     6    1
    12     6     7    1
    13     7    10    1
    14    10    11   ar
    15    11    12    1
    16    11    13   ar
    17    13    14   ar
    18    14    15   ar
    19    15    16   ar
    20    16    17    1
    21     7     8    1
    22     8     9    1
    23    23    24   ar
    24    24    25   ar
    25    25    26   ar
    26    26    27    1
    27    27    28   ar
    28    28    29   ar
    29    29    30   ar
    30    30    31   ar
    31    31    32   ar
    32    26    22   ar
    33    32    27   ar
    34     9     2    1
    35     8     4    1
    36    16    10   ar
@<TRIPOS>MOLECULE
*****
 32 36 0 0 0
SMALL
GASTEIGER

@<TRIPOS>ATOM
      1 C         143.1411  138.0008  162.3599 C.3     1  UNL1        0.0731
      2 N         141.9188  138.3038  163.1749 N.3     1  UNL1       -0.2712
      3 C         141.0601  137.2985  163.8836 C.3     1  UNL1        0.0738
      4 C         139.9512  138.0387  164.5709 C.3     1  UNL1        0.0372
      5 C         138.7352  137.8749  165.4337 C.3     1  UNL1        0.0245
      6 C         138.1569  139.2364  165.6831 C.3     1  UNL1        0.0910
      7 N         139.0156  140.2416  164.9744 N.pl3   1  UNL1       -0.3042
      8 C         140.1245  139.5014  164.2870 C.3     1  UNL1        0.0902
      9 C         141.3405  139.6652  163.4242 C.3     1  UNL1        0.0921
     10 C         138.8027  141.7263  164.9562 C.ar    1  UNL1        0.1034
     11 C         137.7466  142.3218  164.0731 C.ar    1  UNL1        0.1555
     12 F         136.9032  141.4326  163.2081 F       1  UNL1       -0.2028
     13 C         137.5337  143.8065  164.0549 C.ar    1  UNL1        0.0311
     14 C         138.3769  144.6957  164.9198 C.ar    1  UNL1        0.0047
     15 C         139.4332  144.1003  165.8030 C.ar    1  UNL1        0.0311
     16 C         139.6461  142.6156  165.8212 C.ar    1  UNL1        0.1555
     17 F         140.7022  142.0201  166.7043 F       1  UNL1       -0.2028
     18 C         144.2868  138.9687  162.3380 C.3     1  UNL1        0.0294
     19 C         144.7777  139.5790  163.6173 C.3     1  UNL1        0.0666
     20 S         145.1571  141.0296  163.6591 S.3     1  UNL1       -0.0756
     21 C         144.0405  142.0166  160.7559 C.3     1  UNL1        0.1340
     22 N         143.6026  142.5377  162.0925 N.ar    1  UNL1       -0.2872
     23 C         144.1158  142.0840  163.4270 C.ar    1  UNL1        0.1933
     24 N         143.4050  142.8699  164.4886 N.ar    1  UNL1       -0.1221
     25 N         142.4524  143.8093  163.8103 N.ar    1  UNL1       -0.1266
     26 C         142.5745  143.6041  162.3294 C.ar    1  UNL1        0.1862
     27 C         141.8039  144.3365  161.2712 C.ar    1  UNL1        0.1362
     28 C         140.5347  145.0521  161.6276 C.ar    1  UNL1        0.1211
     29 N         139.7641  145.7845  160.5695 N.ar    1  UNL1       -0.2390
     30 C         140.2627  145.8012  159.1548 C.ar    1  UNL1        0.1195
     31 C         141.5319  145.0856  158.7984 C.ar    1  UNL1        0.1196
     32 N         142.3025  144.3532  159.8567 N.ar    1  UNL1       -0.2375
@<TRIPOS>BOND
     1    21    22    1
     2    22    23   ar
     3    23    20    1
     4    20    19    1
     5    19    18    1
     6    18     1    1
     7     1     2    1
     8     2     3    1
     9     3     4    1
    10     4     5    1
    11     5     6    1
    12     6     7    1
    13     7    10    1
    14    10    11   ar
    15    11    12    1
    16    11    13   ar
    17    13    14   ar
    18    14    15   ar
    19    15    16   ar
    20    16    17    1
    21     7     8    1
    22     8     9    1
    23    23    24   ar
    24    24    25   ar
    25    25    26   ar
    26    26    27    1
    27    27    28   ar
    28    28    29   ar
    29    29    30   ar
    30    30    31   ar
    31    31    32   ar
    32    26    22   ar
    33    32    27   ar
    34     9     2    1
    35     8     4    1
    36    16    10   ar
@<TRIPOS>MOLECULE
*****
 32 36 0 0 0
SMALL
GASTEIGER

@<TRIPOS>ATOM
      1 C         142.7515  143.9939  162.7508 C.3     1  UNL1        0.0731
      2 N         142.6819  142.8301  163.6947 N.3     1  UNL1       -0.2712
      3 C         143.1551  141.4353  163.4109 C.3     1  UNL1        0.0738
      4 C         142.8926  140.6001  164.6289 C.3     1  UNL1        0.0372
      5 C         143.0228  139.2218  165.2062 C.3     1  UNL1        0.0245
      6 C         142.4679  139.2485  166.5996 C.3     1  UNL1        0.0910
      7 N         141.9947  140.6434  166.8833 N.pl3   1  UNL1       -0.3042
      8 C         142.2572  141.4787  165.6654 C.3     1  UNL1        0.0902
      9 C         142.1270  142.8569  165.0880 C.3     1  UNL1        0.0921
     10 C         141.3689  141.1194  168.1608 C.ar    1  UNL1        0.1034
     11 C         142.0714  142.1412  169.0048 C.ar    1  UNL1        0.1555
     12 F         143.3996  142.6871  168.5714 F       1  UNL1       -0.2028
     13 C         141.4456  142.6172  170.2822 C.ar    1  UNL1        0.0311
     14 C         140.1174  142.0714  170.7156 C.ar    1  UNL1        0.0047
     15 C         139.4149  141.0495  169.8716 C.ar    1  UNL1        0.0311
     16 C         140.0407  140.5735  168.5942 C.ar    1  UNL1        0.1555
     17 F         139.3382  139.5517  167.7501 F       1  UNL1       -0.2028
     18 C         141.9587  145.2359  163.0319 C.3     1  UNL1        0.0294
     19 C         140.9038  145.6871  162.0656 C.3     1  UNL1        0.0666
     20 S         139.4576  145.4095  162.3505 S.3     1  UNL1       -0.0756
     21 C         139.9505  142.3624  161.2913 C.3     1  UNL1        0.1340
     22 N         139.2889  142.7517  162.5799 N.ar    1  UNL1       -0.2872
     23 C         139.0623  144.1522  163.0668 C.ar    1  UNL1        0.1933
     24 N         138.3711  144.0749  164.3958 N.ar    1  UNL1       -0.1221
     25 N         138.1704  142.6265  164.7303 N.ar    1  UNL1       -0.1266
     26 C         138.7377  141.8086  163.6081 C.ar    1  UNL1        0.1862
     27 C         138.7513  140.3108  163.5280 C.ar    1  UNL1        0.1362
     28 C         138.0598  139.6140  162.3939 C.ar    1  UNL1        0.1211
     29 N         138.0734  138.1162  162.3138 N.ar    1  UNL1       -0.2390
     30 C         138.7786  137.3153  163.3680 C.ar    1  UNL1        0.1195
     31 C         139.4701  138.0120  164.5022 C.ar    1  UNL1        0.1196
     32 N         139.4564  139.5099  164.5821 N.ar    1  UNL1       -0.2375
@<TRIPOS>BOND
     1    21    22    1
     2    22    23   ar
     3    23    20    1
     4    20    19    1
     5    19    18    1
     6    18     1    1
     7     1     2    1
     8     2     3    1
     9     3     4    1
    10     4     5    1
    11     5     6    1
    12     6     7    1
    13     7    10    1
    14    10    11   ar
    15    11    12    1
    16    11    13   ar
    17    13    14   ar
    18    14    15   ar
    19    15    16   ar
    20    16    17    1
    21     7     8    1
    22     8     9    1
    23    23    24   ar
    24    24    25   ar
    25    25    26   ar
    26    26    27    1
    27    27    28   ar
    28    28    29   ar
    29    29    30   ar
    30    30    31   ar
    31    31    32   ar
    32    26    22   ar
    33    32    27   ar
    34     9     2    1
    35     8     4    1
    36    16    10   ar
@<TRIPOS>MOLECULE
*****
 32 36 0 0 0
SMALL
GASTEIGER

@<TRIPOS>ATOM
      1 C         138.3991  144.0989  162.9570 C.3     1  UNL1        0.0731
      2 N         138.6016  143.0015  163.9593 N.3     1  UNL1       -0.2712
      3 C         137.9596  141.6463  163.9246 C.3     1  UNL1        0.0738
      4 C         138.4429  140.8738  165.1161 C.3     1  UNL1        0.0372
      5 C         138.3448  139.5588  165.8311 C.3     1  UNL1        0.0245
      6 C         139.2248  139.6239  167.0441 C.3     1  UNL1        0.0910
      7 N         139.8669  140.9792  167.0787 N.pl3   1  UNL1       -0.3042
      8 C         139.3836  141.7516  165.8872 C.3     1  UNL1        0.0902
      9 C         139.4817  143.0666  165.1722 C.3     1  UNL1        0.0921
     10 C         140.8241  141.4749  168.1218 C.ar    1  UNL1        0.1034
     11 C         140.3631  141.6553  169.5377 C.ar    1  UNL1        0.1555
     12 F         138.9447  141.3401  169.9106 F       1  UNL1       -0.2028
     13 C         141.3203  142.1510  170.5807 C.ar    1  UNL1        0.0311
     14 C         142.7386  142.4663  170.2079 C.ar    1  UNL1        0.0047
     15 C         143.1997  142.2858  168.7919 C.ar    1  UNL1        0.0311
     16 C         142.2425  141.7901  167.7488 C.ar    1  UNL1        0.1555
     17 F         142.7035  141.6096  166.3329 F       1  UNL1       -0.2028
     18 C         139.2884  145.3067  162.9774 C.3     1  UNL1        0.0294
     19 C         139.6087  146.0241  161.6995 C.3     1  UNL1        0.0666
     20 S         140.5397  145.4005  160.7024 S.3     1  UNL1       -0.0756
     21 C         140.3306  142.1548  160.4353 C.3     1  UNL1        0.1340
     22 N         141.4747  142.9183  161.0337 N.ar    1  UNL1       -0.2872
     23 C         141.5708  144.4102  161.1565 C.ar    1  UNL1        0.1933
     24 N         142.8791  144.7380  161.8130 N.ar    1  UNL1       -0.1221
     25 N         143.5916  143.4486  162.0960 N.ar    1  UNL1       -0.1266
     26 C         142.7236  142.3240  161.6144 C.ar    1  UNL1        0.1862
     27 C         143.0477  140.8618  161.6986 C.ar    1  UNL1        0.1362
     28 C         142.7205  140.0916  162.9435 C.ar    1  UNL1        0.1211
     29 N         143.0446  138.6295  163.0278 N.ar    1  UNL1       -0.2390
     30 C         143.6958  137.9376  161.8670 C.ar    1  UNL1        0.1195
     31 C         144.0230  138.7078  160.6221 C.ar    1  UNL1        0.1196
     32 N         143.6989  140.1699  160.5380 N.ar    1  UNL1       -0.2375
@<TRIPOS>BOND
     1    21    22    1
     2    22    23   ar
     3    23    20    1
     4    20    19    1
     5    19    18    1
     6    18     1    1
     7     1     2    1
     8     2     3    1
     9     3     4    1
    10     4     5    1
    11     5     6    1
    12     6     7    1
    13     7    10    1
    14    10    11   ar
    15    11    12    1
    16    11    13   ar
    17    13    14   ar
    18    14    15   ar
    19    15    16   ar
    20    16    17    1
    21     7     8    1
    22     8     9    1
    23    23    24   ar
    24    24    25   ar
    25    25    26   ar
    26    26    27    1
    27    27    28   ar
    28    28    29   ar
    29    29    30   ar
    30    30    31   ar
    31    31    32   ar
    32    26    22   ar
    33    32    27   ar
    34     9     2    1
    35     8     4    1
    36    16    10   ar
@<TRIPOS>MOLECULE
*****
 32 36 0 0 0
SMALL
GASTEIGER

@<TRIPOS>ATOM
      1 C         140.4729  145.7033  160.0176 C.3     1  UNL1        0.0731
      2 N         140.5707  145.0411  161.3599 N.3     1  UNL1       -0.2712
      3 C         139.6510  145.2662  162.5233 C.3     1  UNL1        0.0738
      4 C         140.1174  144.4017  163.6569 C.3     1  UNL1        0.0372
      5 C         139.8372  144.0065  165.0765 C.3     1  UNL1        0.0245
      6 C         140.8720  143.0028  165.4912 C.3     1  UNL1        0.0910
      7 N         141.7917  142.7776  164.3277 N.pl3   1  UNL1       -0.3042
      8 C         141.3253  143.6422  163.1941 C.3     1  UNL1        0.0902
      9 C         141.6055  144.0374  161.7745 C.3     1  UNL1        0.0921
     10 C         142.9707  141.8507  164.3024 C.ar    1  UNL1        0.1034
     11 C         142.7913  140.3997  164.6375 C.ar    1  UNL1        0.1555
     12 F         141.4328  139.8755  164.9979 F       1  UNL1       -0.2028
     13 C         143.9703  139.4727  164.6122 C.ar    1  UNL1        0.0311
     14 C         145.3288  139.9968  164.2518 C.ar    1  UNL1        0.0047
     15 C         145.5083  141.4479  163.9167 C.ar    1  UNL1        0.0311
     16 C         144.3292  142.3748  163.9420 C.ar    1  UNL1        0.1555
     17 F         144.5086  143.8258  163.6069 F       1  UNL1       -0.2028
     18 C         140.5987  144.8852  158.7667 C.3     1  UNL1        0.0294
     19 C         139.5712  143.8399  158.4476 C.3     1  UNL1        0.0666
     20 S         139.7093  142.4562  159.0098 S.3     1  UNL1       -0.0756
     21 C         140.5896  140.0716  161.0563 C.3     1  UNL1        0.1340
     22 N         139.4242  140.9994  161.2327 N.ar    1  UNL1       -0.2872
     23 C         139.0196  142.0955  160.2921 C.ar    1  UNL1        0.1933
     24 N         137.8042  142.7676  160.8587 N.ar    1  UNL1       -0.1221
     25 N         137.4576  142.0868  162.1497 N.ar    1  UNL1       -0.1266
     26 C         138.4588  140.9940  162.3809 C.ar    1  UNL1        0.1862
     27 C         138.4893  140.0599  163.5541 C.ar    1  UNL1        0.1362
     28 C         138.1827  140.5733  164.9298 C.ar    1  UNL1        0.1211
     29 N         138.2132  139.6392  166.1030 N.ar    1  UNL1       -0.2390
     30 C         138.5503  138.1916  165.9005 C.ar    1  UNL1        0.1195
     31 C         138.8569  137.6782  164.5249 C.ar    1  UNL1        0.1196
     32 N         138.8264  138.6124  163.3517 N.ar    1  UNL1       -0.2375
@<TRIPOS>BOND
     1    21    22    1
     2    22    23   ar
     3    23    20    1
     4    20    19    1
     5    19    18    1
     6    18     1    1
     7     1     2    1
     8     2     3    1
     9     3     4    1
    10     4     5    1
    11     5     6    1
    12     6     7    1
    13     7    10    1
    14    10    11   ar
    15    11    12    1
    16    11    13   ar
    17    13    14   ar
    18    14    15   ar
    19    15    16   ar
    20    16    17    1
    21     7     8    1
    22     8     9    1
    23    23    24   ar
    24    24    25   ar
    25    25    26   ar
    26    26    27    1
    27    27    28   ar
    28    28    29   ar
    29    29    30   ar
    30    30    31   ar
    31    31    32   ar
    32    26    22   ar
    33    32    27   ar
    34     9     2    1
    35     8     4    1
    36    16    10   ar
@<TRIPOS>MOLECULE
*****
 32 36 0 0 0
SMALL
GASTEIGER

@<TRIPOS>ATOM
      1 C         144.9657  143.1338  163.2330 C.3     1  UNL1        0.0731
      2 N         144.3924  142.1097  164.1671 N.3     1  UNL1       -0.2712
      3 C         144.5005  140.6211  164.0172 C.3     1  UNL1        0.0738
      4 C         143.7854  139.9858  165.1726 C.3     1  UNL1        0.0372
      5 C         143.4102  138.6731  165.7940 C.3     1  UNL1        0.0245
      6 C         142.6282  138.9577  167.0420 C.3     1  UNL1        0.0910
      7 N         142.5202  140.4463  167.1919 N.pl3   1  UNL1       -0.3042
      8 C         143.2353  141.0817  166.0366 C.3     1  UNL1        0.0902
      9 C         143.6105  142.3943  165.4152 C.3     1  UNL1        0.0921
     10 C         141.8199  141.1721  168.3023 C.ar    1  UNL1        0.1034
     11 C         140.4040  140.8215  168.6517 C.ar    1  UNL1        0.1555
     12 F         139.6882  139.7450  167.8908 F       1  UNL1       -0.2028
     13 C         139.7037  141.5472  169.7621 C.ar    1  UNL1        0.0311
     14 C         140.4194  142.6237  170.5230 C.ar    1  UNL1        0.0047
     15 C         141.8354  142.9744  170.1736 C.ar    1  UNL1        0.0311
     16 C         142.5357  142.2486  169.0632 C.ar    1  UNL1        0.1555
     17 F         143.9516  142.5992  168.7138 F       1  UNL1       -0.2028
     18 C         144.0539  144.0634  162.4883 C.3     1  UNL1        0.0294
     19 C         143.3069  145.1335  163.2279 C.3     1  UNL1        0.0666
     20 S         141.8069  145.1398  163.2248 S.3     1  UNL1       -0.0756
     21 C         141.2934  142.3336  161.6402 C.3     1  UNL1        0.1340
     22 N         140.8149  142.6660  163.0225 N.ar    1  UNL1       -0.2872
     23 C         141.0510  143.9558  163.7508 C.ar    1  UNL1        0.1933
     24 N         140.3983  143.8539  165.0976 N.ar    1  UNL1       -0.1221
     25 N         139.7589  142.5010  165.2016 N.ar    1  UNL1       -0.1266
     26 C         140.0163  141.7668  163.9191 C.ar    1  UNL1        0.1862
     27 C         139.5561  140.3774  163.5909 C.ar    1  UNL1        0.1362
     28 C         140.1164  139.2050  164.3403 C.ar    1  UNL1        0.1211
     29 N         139.6561  137.8156  164.0121 N.ar    1  UNL1       -0.2390
     30 C         138.6355  137.5987  162.9343 C.ar    1  UNL1        0.1195
     31 C         138.0752  138.7710  162.1849 C.ar    1  UNL1        0.1196
     32 N         138.5355  140.1604  162.5132 N.ar    1  UNL1       -0.2375
@<TRIPOS>BOND
     1    21    22    1
     2    22    23   ar
     3    23    20    1
     4    20    19    1
     5    19    18    1
     6    18     1    1
     7     1     2    1
     8     2     3    1
     9     3     4    1
    10     4     5    1
    11     5     6    1
    12     6     7    1
    13     7    10    1
    14    10    11   ar
    15    11    12    1
    16    11    13   ar
    17    13    14   ar
    18    14    15   ar
    19    15    16   ar
    20    16    17    1
    21     7     8    1
    22     8     9    1
    23    23    24   ar
    24    24    25   ar
    25    25    26   ar
    26    26    27    1
    27    27    28   ar
    28    28    29   ar
    29    29    30   ar
    30    30    31   ar
    31    31    32   ar
    32    26    22   ar
    33    32    27   ar
    34     9     2    1
    35     8     4    1
    36    16    10   ar
@<TRIPOS>MOLECULE
*****
 32 36 0 0 0
SMALL
GASTEIGER

@<TRIPOS>ATOM
      1 C         142.2516  137.8981  162.8291 C.3     1  UNL1        0.0731
      2 N         142.8135  139.2889  162.8423 N.3     1  UNL1       -0.2712
      3 C         144.1939  139.6779  163.2818 C.3     1  UNL1        0.0738
      4 C         144.3271  141.1642  163.1293 C.3     1  UNL1        0.0372
      5 C         145.2626  142.3232  163.3067 C.3     1  UNL1        0.0245
      6 C         144.5428  143.5691  162.8826 C.3     1  UNL1        0.0910
      7 N         143.1624  143.1799  162.4431 N.pl3   1  UNL1       -0.3042
      8 C         143.0291  141.6937  162.5956 C.3     1  UNL1        0.0902
      9 C         142.0936  140.5346  162.4181 C.3     1  UNL1        0.0921
     10 C         142.1016  144.1132  161.9395 C.ar    1  UNL1        0.1034
     11 C         141.3270  144.9596  162.9058 C.ar    1  UNL1        0.1555
     12 F         141.6132  144.8726  164.3757 F       1  UNL1       -0.2028
     13 C         140.2662  145.8929  162.4022 C.ar    1  UNL1        0.0311
     14 C         139.9799  145.9799  160.9323 C.ar    1  UNL1        0.0047
     15 C         140.7545  145.1335  159.9660 C.ar    1  UNL1        0.0311
     16 C         141.8154  144.2002  160.4696 C.ar    1  UNL1        0.1555
     17 F         142.5899  143.3539  159.5033 F       1  UNL1       -0.2028
     18 C         140.7776  137.6865  162.6484 C.3     1  UNL1        0.0294
     19 C         139.8894  137.5323  163.8473 C.3     1  UNL1        0.0666
     20 S         139.0647  138.6911  164.3236 S.3     1  UNL1       -0.0756
     21 C         141.3454  140.3468  165.9688 C.3     1  UNL1        0.1340
     22 N         140.0730  139.7943  166.5397 N.ar    1  UNL1       -0.2872
     23 C         139.0247  139.0332  165.7835 C.ar    1  UNL1        0.1933
     24 N         137.9295  138.6743  166.7435 N.ar    1  UNL1       -0.1221
     25 N         138.3008  139.2136  168.0931 N.ar    1  UNL1       -0.1266
     26 C         139.6257  139.9058  167.9672 C.ar    1  UNL1        0.1862
     27 C         140.3720  140.5894  169.0743 C.ar    1  UNL1        0.1362
     28 C         139.9313  141.9408  169.5531 C.ar    1  UNL1        0.1211
     29 N         140.6776  142.6244  170.6602 N.ar    1  UNL1       -0.2390
     30 C         141.8648  141.9564  171.2885 C.ar    1  UNL1        0.1195
     31 C         142.3055  140.6050  170.8096 C.ar    1  UNL1        0.1196
     32 N         141.5591  139.9214  169.7025 N.ar    1  UNL1       -0.2375
@<TRIPOS>BOND
     1    21    22    1
     2    22    23   ar
     3    23    20    1
     4    20    19    1
     5    19    18    1
     6    18     1    1
     7     1     2    1
     8     2     3    1
     9     3     4    1
    10     4     5    1
    11     5     6    1
    12     6     7    1
    13     7    10    1
    14    10    11   ar
    15    11    12    1
    16    11    13   ar
    17    13    14   ar
    18    14    15   ar
    19    15    16   ar
    20    16    17    1
    21     7     8    1
    22     8     9    1
    23    23    24   ar
    24    24    25   ar
    25    25    26   ar
    26    26    27    1
    27    27    28   ar
    28    28    29   ar
    29    29    30   ar
    30    30    31   ar
    31    31    32   ar
    32    26    22   ar
    33    32    27   ar
    34     9     2    1
    35     8     4    1
    36    16    10   ar
@<TRIPOS>MOLECULE
*****
 32 36 0 0 0
SMALL
GASTEIGER

@<TRIPOS>ATOM
      1 C         138.0069  143.6581  162.4146 C.3     1  UNL1        0.0731
      2 N         138.3428  142.2513  162.8120 N.3     1  UNL1       -0.2712
      3 C         137.8183  141.0034  162.1657 C.3     1  UNL1        0.0738
      4 C         138.4136  139.8262  162.8797 C.3     1  UNL1        0.0372
      5 C         138.4574  138.3275  162.9216 C.3     1  UNL1        0.0245
      6 C         139.3770  137.9214  164.0350 C.3     1  UNL1        0.0910
      7 N         139.9015  139.1694  164.6812 N.pl3   1  UNL1       -0.3042
      8 C         139.3062  140.3466  163.9672 C.3     1  UNL1        0.0902
      9 C         139.2624  141.8453  163.9254 C.3     1  UNL1        0.0921
     10 C         140.8542  139.2296  165.8383 C.ar    1  UNL1        0.1034
     11 C         142.2417  138.6775  165.6969 C.ar    1  UNL1        0.1555
     12 F         142.6766  138.0653  164.3984 F       1  UNL1       -0.2028
     13 C         143.1944  138.7377  166.8540 C.ar    1  UNL1        0.0311
     14 C         142.7595  139.3498  168.1525 C.ar    1  UNL1        0.0047
     15 C         141.3720  139.9019  168.2939 C.ar    1  UNL1        0.0311
     16 C         140.4193  139.8418  167.1368 C.ar    1  UNL1        0.1555
     17 F         139.0318  140.3938  167.2783 F       1  UNL1       -0.2028
     18 C         138.8299  144.8005  162.9319 C.3     1  UNL1        0.0294
     19 C         139.3724  145.8254  161.9804 C.3     1  UNL1        0.0666
     20 S         140.5381  145.4878  161.0989 S.3     1  UNL1       -0.0756
     21 C         140.2767  142.6130  159.5769 C.3     1  UNL1        0.1340
     22 N         141.2397  142.9430  160.6786 N.ar    1  UNL1       -0.2872
     23 C         141.3599  144.2645  161.3782 C.ar    1  UNL1        0.1933
     24 N         142.4461  144.1478  162.4061 N.ar    1  UNL1       -0.1221
     25 N         142.9973  142.7542  162.3417 N.ar    1  UNL1       -0.1266
     26 C         142.2518  142.0096  161.2741 C.ar    1  UNL1        0.1862
     27 C         142.4784  140.5822  160.8725 C.ar    1  UNL1        0.1362
     28 C         143.4349  140.2579  159.7635 C.ar    1  UNL1        0.1211
     29 N         143.6616  138.8306  159.3619 N.ar    1  UNL1       -0.2390
     30 C         142.9316  137.7275  160.0695 C.ar    1  UNL1        0.1195
     31 C         141.9751  138.0518  161.1785 C.ar    1  UNL1        0.1196
     32 N         141.7485  139.4792  161.5800 N.ar    1  UNL1       -0.2375
@<TRIPOS>BOND
     1    21    22    1
     2    22    23   ar
     3    23    20    1
     4    20    19    1
     5    19    18    1
     6    18     1    1
     7     1     2    1
     8     2     3    1
     9     3     4    1
    10     4     5    1
    11     5     6    1
    12     6     7    1
    13     7    10    1
    14    10    11   ar
    15    11    12    1
    16    11    13   ar
    17    13    14   ar
    18    14    15   ar
    19    15    16   ar
    20    16    17    1
    21     7     8    1
    22     8     9    1
    23    23    24   ar
    24    24    25   ar
    25    25    26   ar
    26    26    27    1
    27    27    28   ar
    28    28    29   ar
    29    29    30   ar
    30    30    31   ar
    31    31    32   ar
    32    26    22   ar
    33    32    27   ar
    34     9     2    1
    35     8     4    1
    36    16    10   ar
@<TRIPOS>MOLECULE
*****
 32 36 0 0 0
SMALL
GASTEIGER

@<TRIPOS>ATOM
      1 C         140.0355  138.6661  159.4795 C.3     1  UNL1        0.0731
      2 N         139.7276  138.8007  160.9414 N.3     1  UNL1       -0.2712
      3 C         139.5400  137.6713  161.9105 C.3     1  UNL1        0.0738
      4 C         139.2496  138.2610  163.2588 C.3     1  UNL1        0.0372
      5 C         138.9543  137.9274  164.6911 C.3     1  UNL1        0.0245
      6 C         138.7798  139.2150  165.4406 C.3     1  UNL1        0.0910
      7 N         138.9675  140.3445  164.4713 N.pl3   1  UNL1       -0.3042
      8 C         139.2578  139.7548  163.1230 C.3     1  UNL1        0.0902
      9 C         139.5532  140.0884  161.6907 C.3     1  UNL1        0.0921
     10 C         138.8801  141.8068  164.7939 C.ar    1  UNL1        0.1034
     11 C         139.8563  142.4232  165.7514 C.ar    1  UNL1        0.1555
     12 F         140.9201  141.5774  166.3864 F       1  UNL1       -0.2028
     13 C         139.7689  143.8855  166.0739 C.ar    1  UNL1        0.0311
     14 C         138.7053  144.7314  165.4390 C.ar    1  UNL1        0.0047
     15 C         137.7289  144.1149  164.4815 C.ar    1  UNL1        0.0311
     16 C         137.8163  142.6526  164.1589 C.ar    1  UNL1        0.1555
     17 F         136.8401  142.0361  163.2014 F       1  UNL1       -0.2028
     18 C         141.4604  138.5888  159.0172 C.3     1  UNL1        0.0294
     19 C         142.4176  137.6505  159.6907 C.3     1  UNL1        0.0666
     20 S         143.5121  138.1929  160.5611 S.3     1  UNL1       -0.0756
     21 C         143.4091  141.4406  160.2596 C.3     1  UNL1        0.1340
     22 N         143.1406  140.6626  161.5136 N.ar    1  UNL1       -0.2872
     23 C         143.1880  139.1698  161.6522 C.ar    1  UNL1        0.1933
     24 N         142.8543  138.8254  163.0735 N.ar    1  UNL1       -0.1221
     25 N         142.6007  140.1054  163.8133 N.ar    1  UNL1       -0.1266
     26 C         142.7777  141.2409  162.8493 C.ar    1  UNL1        0.1862
     27 C         142.6194  142.6987  163.1654 C.ar    1  UNL1        0.1362
     28 C         143.6285  143.3920  164.0321 C.ar    1  UNL1        0.1211
     29 N         143.4702  144.8497  164.3482 N.ar    1  UNL1       -0.2390
     30 C         142.3029  145.6141  163.7976 C.ar    1  UNL1        0.1195
     31 C         141.2939  144.9208  162.9309 C.ar    1  UNL1        0.1196
     32 N         141.4522  143.4630  162.6148 N.ar    1  UNL1       -0.2375
@<TRIPOS>BOND
     1    21    22    1
     2    22    23   ar
     3    23    20    1
     4    20    19    1
     5    19    18    1
     6    18     1    1
     7     1     2    1
     8     2     3    1
     9     3     4    1
    10     4     5    1
    11     5     6    1
    12     6     7    1
    13     7    10    1
    14    10    11   ar
    15    11    12    1
    16    11    13   ar
    17    13    14   ar
    18    14    15   ar
    19    15    16   ar
    20    16    17    1
    21     7     8    1
    22     8     9    1
    23    23    24   ar
    24    24    25   ar
    25    25    26   ar
    26    26    27    1
    27    27    28   ar
    28    28    29   ar
    29    29    30   ar
    30    30    31   ar
    31    31    32   ar
    32    26    22   ar
    33    32    27   ar
    34     9     2    1
    35     8     4    1
    36    16    10   ar
