@<TRIPOS>MOLECULE
*****
 30 34 0 0 0
SMALL
GASTEIGER

@<TRIPOS>ATOM
      1 N         143.3266  141.1085  162.1613 N.3     1  UNL1       -0.2725
      2 C         141.9858  140.6184  162.6218 C.3     1  UNL1        0.0738
      3 C         141.7475  140.3416  164.0766 C.3     1  UNL1        0.0376
      4 C         142.8501  140.5549  165.0711 C.3     1  UNL1        0.0841
      5 C         144.1908  141.0450  164.6106 C.3     1  UNL1        0.0376
      6 C         144.4291  141.3218  163.1557 C.3     1  UNL1        0.0738
      7 N         142.6118  140.2781  166.5259 N.am    1  UNL1       -0.2423
      8 C         143.1393  139.1053  167.2982 C.2     1  UNL1        0.3310
      9 O         143.9977  138.0035  166.7513 O.2     1  UNL1       -0.2501
     10 N         142.6577  139.2279  168.7135 N.am    1  UNL1       -0.1647
     11 C         141.8326  140.4763  168.8159 C.2     1  UNL1        0.0715
     12 C         141.1033  141.1060  169.9656 C.3     1  UNL1        0.0824
     13 C         140.3457  142.3847  169.7632 C.2     1  UNL1        0.0412
     14 CL        139.6165  143.0144  170.9129 Cl      1  UNL1       -0.0865
     15 C         140.3174  143.0338  168.4112 C.2     1  UNL1        0.0087
     16 C         141.0466  142.4041  167.2615 C.2     1  UNL1        0.0165
     17 C         141.8042  141.1254  167.4638 C.2     1  UNL1        0.0669
     18 C         143.5648  141.3853  160.7064 C.3     1  UNL1        0.0739
     19 C         143.4910  142.7912  160.1885 C.3     1  UNL1        0.0393
     20 C         142.2486  143.6043  160.4006 C.3     1  UNL1        0.1013
     21 O         144.2942  144.9315  162.5693 O.2     1  UNL1       -0.2501
     22 C         142.8283  144.6881  162.7742 C.2     1  UNL1        0.3310
     23 N         142.0453  145.0120  164.0119 N.am    1  UNL1       -0.1647
     24 C         140.6212  144.6022  163.7801 C.2     1  UNL1        0.0706
     25 C         139.4003  144.6800  164.6481 C.3     1  UNL1        0.0705
     26 C         138.0823  144.1806  164.1350 C.2     1  UNL1       -0.0199
     27 C         137.9851  143.6034  162.7539 C.2     1  UNL1       -0.0029
     28 C         139.2059  143.5256  161.8859 C.2     1  UNL1        0.0156
     29 C         140.5240  144.0250  162.3990 C.2     1  UNL1        0.0669
     30 N         141.8881  144.0781  161.7774 N.am    1  UNL1       -0.2407
@<TRIPOS>BOND
     1    21    22    2
     2    22    23    1
     3    23    24    2
     4    24    25    1
     5    25    26    1
     6    26    27    2
     7    27    28    1
     8    28    29    2
     9    29    30    1
    10    30    20    1
    11    20    19    1
    12    19    18    1
    13    18     1    1
    14     1     2    1
    15     2     3    1
    16     3     4    1
    17     4     7    1
    18     7     8   am
    19     8     9    2
    20     8    10    1
    21    10    11    2
    22    11    12    1
    23    12    13    1
    24    13    14    1
    25    13    15    2
    26    15    16    1
    27    16    17    2
    28     4     5    1
    29     5     6    1
    30    30    22   am
    31     6     1    1
    32    29    24    1
    33    17     7    1
    34    17    11    1
@<TRIPOS>MOLECULE
*****
 30 34 0 0 0
SMALL
GASTEIGER

@<TRIPOS>ATOM
      1 N         139.2679  138.4206  162.2739 N.3     1  UNL1       -0.2725
      2 C         140.0811  137.6430  163.2659 C.3     1  UNL1        0.0738
      3 C         140.0124  137.9854  164.7247 C.3     1  UNL1        0.0376
      4 C         139.1304  139.1053  165.1915 C.3     1  UNL1        0.0841
      5 C         138.3173  139.8829  164.1995 C.3     1  UNL1        0.0376
      6 C         138.3860  139.5405  162.7407 C.3     1  UNL1        0.0738
      7 N         139.0617  139.4477  166.6503 N.am    1  UNL1       -0.2423
      8 C         138.0699  138.9068  167.6371 C.2     1  UNL1        0.3310
      9 O         136.9727  137.9286  167.3384 O.2     1  UNL1       -0.2501
     10 N         138.3680  139.5159  168.9751 N.am    1  UNL1       -0.1647
     11 C         139.5440  140.4332  168.8152 C.2     1  UNL1        0.0715
     12 C         140.2798  141.3014  169.7923 C.3     1  UNL1        0.0824
     13 C         141.4444  142.1275  169.3326 C.2     1  UNL1        0.0412
     14 CL        142.1803  142.9957  170.3097 Cl      1  UNL1       -0.0865
     15 C         141.8732  142.0853  167.8958 C.2     1  UNL1        0.0087
     16 C         141.1373  141.2171  166.9187 C.2     1  UNL1        0.0165
     17 C         139.9728  140.3910  167.3783 C.2     1  UNL1        0.0669
     18 C         139.3367  138.0782  160.8151 C.3     1  UNL1        0.0739
     19 C         139.5241  139.1645  159.7978 C.3     1  UNL1        0.0393
     20 C         140.8968  139.6992  159.5158 C.3     1  UNL1        0.1013
     21 O         142.9602  137.2971  158.7272 O.2     1  UNL1       -0.2501
     22 C         143.0135  138.1319  159.9723 C.2     1  UNL1        0.3310
     23 N         144.0245  138.0093  161.0735 N.am    1  UNL1       -0.1647
     24 C         143.7010  139.0375  162.1166 C.2     1  UNL1        0.0706
     25 C         144.3527  139.3814  163.4231 C.3     1  UNL1        0.0705
     26 C         143.7933  140.4835  164.2730 C.2     1  UNL1       -0.0199
     27 C         142.5823  141.2417  163.8165 C.2     1  UNL1       -0.0029
     28 C         141.9306  140.8979  162.5099 C.2     1  UNL1        0.0156
     29 C         142.4900  139.7958  161.6600 C.2     1  UNL1        0.0669
     30 N         142.0651  139.2361  160.3348 N.am    1  UNL1       -0.2407
@<TRIPOS>BOND
     1    21    22    2
     2    22    23    1
     3    23    24    2
     4    24    25    1
     5    25    26    1
     6    26    27    2
     7    27    28    1
     8    28    29    2
     9    29    30    1
    10    30    20    1
    11    20    19    1
    12    19    18    1
    13    18     1    1
    14     1     2    1
    15     2     3    1
    16     3     4    1
    17     4     7    1
    18     7     8   am
    19     8     9    2
    20     8    10    1
    21    10    11    2
    22    11    12    1
    23    12    13    1
    24    13    14    1
    25    13    15    2
    26    15    16    1
    27    16    17    2
    28     4     5    1
    29     5     6    1
    30    30    22   am
    31     6     1    1
    32    29    24    1
    33    17     7    1
    34    17    11    1
@<TRIPOS>MOLECULE
*****
 30 34 0 0 0
SMALL
GASTEIGER

@<TRIPOS>ATOM
      1 N         138.8086  140.8829  162.2662 N.3     1  UNL1       -0.2725
      2 C         140.1767  140.3904  162.6347 C.3     1  UNL1        0.0738
      3 C         140.5584  140.2461  164.0782 C.3     1  UNL1        0.0376
      4 C         139.5719  140.5943  165.1532 C.3     1  UNL1        0.0841
      5 C         138.2038  141.0867  164.7847 C.3     1  UNL1        0.0376
      6 C         137.8222  141.2310  163.3413 C.3     1  UNL1        0.0738
      7 N         139.9536  140.4500  166.5966 N.am    1  UNL1       -0.2423
      8 C         139.2209  139.6411  167.6257 C.2     1  UNL1        0.3310
      9 O         137.9780  138.8346  167.3921 O.2     1  UNL1       -0.2501
     10 N         139.9494  139.7804  168.9295 N.am    1  UNL1       -0.1647
     11 C         141.1323  140.6754  168.7062 C.2     1  UNL1        0.0715
     12 C         142.2074  141.1670  169.6295 C.3     1  UNL1        0.0824
     13 C         143.2852  142.0724  169.1109 C.2     1  UNL1        0.0412
     14 CL        144.3603  142.5640  170.0341 Cl      1  UNL1       -0.0865
     15 C         143.2877  142.4862  167.6691 C.2     1  UNL1        0.0087
     16 C         142.2125  141.9946  166.7458 C.2     1  UNL1        0.0165
     17 C         141.1349  141.0892  167.2644 C.2     1  UNL1        0.0669
     18 C         138.4270  141.0272  160.8228 C.3     1  UNL1        0.0739
     19 C         138.3616  142.3888  160.1968 C.3     1  UNL1        0.0393
     20 C         139.5721  143.2744  160.1994 C.3     1  UNL1        0.1013
     21 O         137.7384  144.7847  162.4369 O.2     1  UNL1       -0.2501
     22 C         139.2202  144.5642  162.5140 C.2     1  UNL1        0.3310
     23 N         140.1192  144.9993  163.6331 N.am    1  UNL1       -0.1647
     24 C         141.5177  144.5740  163.2964 C.2     1  UNL1        0.0706
     25 C         142.8182  144.7320  164.0268 C.3     1  UNL1        0.0705
     26 C         144.0840  144.1922  163.4300 C.2     1  UNL1       -0.0199
     27 C         144.0493  143.4942  162.1027 C.2     1  UNL1       -0.0029
     28 C         142.7487  143.3362  161.3723 C.2     1  UNL1        0.0156
     29 C         141.4829  143.8760  161.9691 C.2     1  UNL1        0.0669
     30 N         140.0630  143.8700  161.4856 N.am    1  UNL1       -0.2407
@<TRIPOS>BOND
     1    21    22    2
     2    22    23    1
     3    23    24    2
     4    24    25    1
     5    25    26    1
     6    26    27    2
     7    27    28    1
     8    28    29    2
     9    29    30    1
    10    30    20    1
    11    20    19    1
    12    19    18    1
    13    18     1    1
    14     1     2    1
    15     2     3    1
    16     3     4    1
    17     4     7    1
    18     7     8   am
    19     8     9    2
    20     8    10    1
    21    10    11    2
    22    11    12    1
    23    12    13    1
    24    13    14    1
    25    13    15    2
    26    15    16    1
    27    16    17    2
    28     4     5    1
    29     5     6    1
    30    30    22   am
    31     6     1    1
    32    29    24    1
    33    17     7    1
    34    17    11    1
@<TRIPOS>MOLECULE
*****
 30 34 0 0 0
SMALL
GASTEIGER

@<TRIPOS>ATOM
      1 N         139.0605  138.6024  162.2822 N.3     1  UNL1       -0.2725
      2 C         139.8985  137.7950  163.2286 C.3     1  UNL1        0.0738
      3 C         139.8860  138.1080  164.6955 C.3     1  UNL1        0.0376
      4 C         139.0353  139.2285  165.2161 C.3     1  UNL1        0.0841
      5 C         138.1973  140.0359  164.2697 C.3     1  UNL1        0.0376
      6 C         138.2099  139.7229  162.8027 C.3     1  UNL1        0.0738
      7 N         139.0228  139.5415  166.6830 N.am    1  UNL1       -0.2423
      8 C         138.0894  138.9568  167.7013 C.2     1  UNL1        0.3310
      9 O         137.0047  137.9565  167.4315 O.2     1  UNL1       -0.2501
     10 N         138.4311  139.5480  169.0368 N.am    1  UNL1       -0.1647
     11 C         139.5757  140.4981  168.8439 C.2     1  UNL1        0.0715
     12 C         140.3323  141.3665  169.8050 C.3     1  UNL1        0.0824
     13 C         141.4545  142.2308  169.3112 C.2     1  UNL1        0.0412
     14 CL        142.2110  143.0991  170.2723 Cl      1  UNL1       -0.0865
     15 C         141.8201  142.2267  167.8565 C.2     1  UNL1        0.0087
     16 C         141.0636  141.3584  166.8954 C.2     1  UNL1        0.0165
     17 C         139.9414  140.4941  167.3891 C.2     1  UNL1        0.0669
     18 C         139.0731  138.2895  160.8153 C.3     1  UNL1        0.0739
     19 C         138.9751  139.3991  159.8107 C.3     1  UNL1        0.0393
     20 C         140.0798  140.4073  159.6967 C.3     1  UNL1        0.1013
     21 O         138.1270  142.8639  158.8017 O.2     1  UNL1       -0.2501
     22 C         139.0613  142.8629  159.9752 C.2     1  UNL1        0.3310
     23 N         139.2620  143.9909  160.9433 N.am    1  UNL1       -0.1647
     24 C         140.2836  143.5589  161.9531 C.2     1  UNL1        0.0706
     25 C         140.8773  144.2555  163.1414 C.3     1  UNL1        0.0705
     26 C         141.9018  143.5571  163.9857 C.2     1  UNL1       -0.0199
     27 C         142.3325  142.1621  163.6416 C.2     1  UNL1       -0.0029
     28 C         141.7387  141.4655  162.4533 C.2     1  UNL1        0.0156
     29 C         140.7143  142.1639  161.6090 C.2     1  UNL1        0.0669
     30 N         139.9589  141.7338  160.3866 N.am    1  UNL1       -0.2407
@<TRIPOS>BOND
     1    21    22    2
     2    22    23    1
     3    23    24    2
     4    24    25    1
     5    25    26    1
     6    26    27    2
     7    27    28    1
     8    28    29    2
     9    29    30    1
    10    30    20    1
    11    20    19    1
    12    19    18    1
    13    18     1    1
    14     1     2    1
    15     2     3    1
    16     3     4    1
    17     4     7    1
    18     7     8   am
    19     8     9    2
    20     8    10    1
    21    10    11    2
    22    11    12    1
    23    12    13    1
    24    13    14    1
    25    13    15    2
    26    15    16    1
    27    16    17    2
    28     4     5    1
    29     5     6    1
    30    30    22   am
    31     6     1    1
    32    29    24    1
    33    17     7    1
    34    17    11    1
@<TRIPOS>MOLECULE
*****
 30 34 0 0 0
SMALL
GASTEIGER

@<TRIPOS>ATOM
      1 N         139.1035  138.6095  162.2254 N.3     1  UNL1       -0.2725
      2 C         138.3775  139.8242  162.7227 C.3     1  UNL1        0.0738
      3 C         138.3487  140.1323  164.1904 C.3     1  UNL1        0.0376
      4 C         139.0461  139.2257  165.1609 C.3     1  UNL1        0.0841
      5 C         139.7721  138.0110  164.6636 C.3     1  UNL1        0.0376
      6 C         139.8008  137.7029  163.1959 C.3     1  UNL1        0.0738
      7 N         139.0173  139.5339  166.6286 N.am    1  UNL1       -0.2423
      8 C         138.0875  138.9291  167.6385 C.2     1  UNL1        0.3310
      9 O         137.0233  137.9100  167.3579 O.2     1  UNL1       -0.2501
     10 N         138.4089  139.5223  168.9782 N.am    1  UNL1       -0.1647
     11 C         139.5373  140.4937  168.7963 C.2     1  UNL1        0.0715
     12 C         140.2710  141.3727  169.7654 C.3     1  UNL1        0.0824
     13 C         141.3807  142.2589  169.2823 C.2     1  UNL1        0.0412
     14 CL        142.1144  143.1379  170.2513 Cl      1  UNL1       -0.0865
     15 C         141.7567  142.2660  167.8302 C.2     1  UNL1        0.0087
     16 C         141.0230  141.3870  166.8612 C.2     1  UNL1        0.0165
     17 C         139.9133  140.5009  167.3442 C.2     1  UNL1        0.0669
     18 C         139.1323  138.3014  160.7577 C.3     1  UNL1        0.0739
     19 C         140.2810  138.7709  159.9151 C.3     1  UNL1        0.0393
     20 C         141.1197  139.9288  160.3685 C.3     1  UNL1        0.1013
     21 O         143.0640  137.3101  160.4786 O.2     1  UNL1       -0.2501
     22 C         143.1394  138.5030  161.3849 C.2     1  UNL1        0.3310
     23 N         144.1217  138.7017  162.5009 N.am    1  UNL1       -0.1647
     24 C         143.8352  140.0281  163.1401 C.2     1  UNL1        0.0706
     25 C         144.4802  140.7505  164.2855 C.3     1  UNL1        0.0705
     26 C         143.9658  142.0941  164.7098 C.2     1  UNL1       -0.0199
     27 C         142.8064  142.7152  163.9888 C.2     1  UNL1       -0.0029
     28 C         142.1613  141.9928  162.8434 C.2     1  UNL1        0.0156
     29 C         142.6758  140.6492  162.4191 C.2     1  UNL1        0.0669
     30 N         142.2457  139.7066  161.3343 N.am    1  UNL1       -0.2407
@<TRIPOS>BOND
     1    21    22    2
     2    22    23    1
     3    23    24    2
     4    24    25    1
     5    25    26    1
     6    26    27    2
     7    27    28    1
     8    28    29    2
     9    29    30    1
    10    30    20    1
    11    20    19    1
    12    19    18    1
    13    18     1    1
    14     1     2    1
    15     2     3    1
    16     3     4    1
    17     4     7    1
    18     7     8   am
    19     8     9    2
    20     8    10    1
    21    10    11    2
    22    11    12    1
    23    12    13    1
    24    13    14    1
    25    13    15    2
    26    15    16    1
    27    16    17    2
    28     4     5    1
    29     5     6    1
    30    30    22   am
    31     6     1    1
    32    29    24    1
    33    17     7    1
    34    17    11    1
@<TRIPOS>MOLECULE
*****
 30 34 0 0 0
SMALL
GASTEIGER

@<TRIPOS>ATOM
      1 N         139.1735  139.2582  162.6145 N.3     1  UNL1       -0.2725
      2 C         140.3972  138.8312  163.3695 C.3     1  UNL1        0.0738
      3 C         140.4892  139.0725  164.8471 C.3     1  UNL1        0.0376
      4 C         139.3574  139.7409  165.5698 C.3     1  UNL1        0.0841
      5 C         138.1336  140.1679  164.8148 C.3     1  UNL1        0.0376
      6 C         138.0416  139.9265  163.3372 C.3     1  UNL1        0.0738
      7 N         139.4493  139.9822  167.0474 N.am    1  UNL1       -0.2423
      8 C         138.5487  139.3965  168.0942 C.2     1  UNL1        0.3310
      9 O         137.3979  138.4667  167.8472 O.2     1  UNL1       -0.2501
     10 N         139.0008  139.9040  169.4313 N.am    1  UNL1       -0.1647
     11 C         140.1809  140.8033  169.2110 C.2     1  UNL1        0.0715
     12 C         141.0389  141.5844  170.1616 C.3     1  UNL1        0.0824
     13 C         142.1742  142.4139  169.6388 C.2     1  UNL1        0.0412
     14 CL        143.0322  143.1950  170.5894 Cl      1  UNL1       -0.0865
     15 C         142.4513  142.4622  168.1655 C.2     1  UNL1        0.0087
     16 C         141.5933  141.6811  167.2149 C.2     1  UNL1        0.0165
     17 C         140.4581  140.8516  167.7376 C.2     1  UNL1        0.0669
     18 C         139.0815  139.0168  161.1370 C.3     1  UNL1        0.0739
     19 C         139.9473  139.7986  160.1940 C.3     1  UNL1        0.0393
     20 C         140.0057  141.2940  160.2943 C.3     1  UNL1        0.1013
     21 O         143.0181  141.0109  161.5170 O.2     1  UNL1       -0.2501
     22 C         141.8974  141.8123  162.1103 C.2     1  UNL1        0.3310
     23 N         141.9647  142.6243  163.3697 N.am    1  UNL1       -0.1647
     24 C         140.6216  143.2562  163.5861 C.2     1  UNL1        0.0706
     25 C         140.0998  144.1610  164.6627 C.3     1  UNL1        0.0705
     26 C         138.6807  144.6443  164.6136 C.2     1  UNL1       -0.0199
     27 C         137.7834  144.2229  163.4878 C.2     1  UNL1       -0.0029
     28 C         138.3052  143.3182  162.4112 C.2     1  UNL1        0.0156
     29 C         139.7243  142.8349  162.4603 C.2     1  UNL1        0.0669
     30 N         140.5128  141.9424  161.5483 N.am    1  UNL1       -0.2407
@<TRIPOS>BOND
     1    21    22    2
     2    22    23    1
     3    23    24    2
     4    24    25    1
     5    25    26    1
     6    26    27    2
     7    27    28    1
     8    28    29    2
     9    29    30    1
    10    30    20    1
    11    20    19    1
    12    19    18    1
    13    18     1    1
    14     1     2    1
    15     2     3    1
    16     3     4    1
    17     4     7    1
    18     7     8   am
    19     8     9    2
    20     8    10    1
    21    10    11    2
    22    11    12    1
    23    12    13    1
    24    13    14    1
    25    13    15    2
    26    15    16    1
    27    16    17    2
    28     4     5    1
    29     5     6    1
    30    30    22   am
    31     6     1    1
    32    29    24    1
    33    17     7    1
    34    17    11    1
@<TRIPOS>MOLECULE
*****
 30 34 0 0 0
SMALL
GASTEIGER

@<TRIPOS>ATOM
      1 N         140.7378  138.7525  162.1175 N.3     1  UNL1       -0.2725
      2 C         140.7143  137.6707  163.1563 C.3     1  UNL1        0.0738
      3 C         140.4991  138.0206  164.5989 C.3     1  UNL1        0.0376
      4 C         140.3074  139.4525  165.0028 C.3     1  UNL1        0.0841
      5 C         140.3310  140.5343  163.9641 C.3     1  UNL1        0.0376
      6 C         140.5462  140.1844  162.5214 C.3     1  UNL1        0.0738
      7 N         140.0922  139.8024  166.4455 N.am    1  UNL1       -0.2423
      8 C         138.9442  139.3530  167.3000 C.2     1  UNL1        0.3310
      9 O         137.8098  138.4748  166.8619 O.2     1  UNL1       -0.2501
     10 N         139.1297  139.9360  168.6695 N.am    1  UNL1       -0.1647
     11 C         140.3924  140.7457  168.6615 C.2     1  UNL1        0.0715
     12 C         141.0773  141.5476  169.7282 C.3     1  UNL1        0.0824
     13 C         142.3572  142.2668  169.4203 C.2     1  UNL1        0.0412
     14 CL        143.0422  143.0687  170.4870 Cl      1  UNL1       -0.0865
     15 C         142.9520  142.1842  168.0458 C.2     1  UNL1        0.0087
     16 C         142.2670  141.3824  166.9791 C.2     1  UNL1        0.0165
     17 C         140.9872  140.6631  167.2869 C.2     1  UNL1        0.0669
     18 C         140.9530  138.4026  160.6749 C.3     1  UNL1        0.0739
     19 C         142.3177  138.0063  160.1947 C.3     1  UNL1        0.0393
     20 C         143.1550  138.9837  159.4244 C.3     1  UNL1        0.1013
     21 O         143.6964  141.9129  158.0917 O.2     1  UNL1       -0.2501
     22 C         143.9998  141.5184  159.5067 C.2     1  UNL1        0.3310
     23 N         144.6052  142.4009  160.5577 N.am    1  UNL1       -0.1647
     24 C         144.7306  141.6000  161.8197 C.2     1  UNL1        0.0706
     25 C         145.2573  141.9471  163.1806 C.3     1  UNL1        0.0705
     26 C         145.2560  140.9166  164.2706 C.2     1  UNL1       -0.0199
     27 C         144.7279  139.5390  163.9997 C.2     1  UNL1       -0.0029
     28 C         144.2012  139.1919  162.6388 C.2     1  UNL1        0.0156
     29 C         144.2026  140.2224  161.5488 C.2     1  UNL1        0.0669
     30 N         143.7509  140.1720  160.1193 N.am    1  UNL1       -0.2407
@<TRIPOS>BOND
     1    21    22    2
     2    22    23    1
     3    23    24    2
     4    24    25    1
     5    25    26    1
     6    26    27    2
     7    27    28    1
     8    28    29    2
     9    29    30    1
    10    30    20    1
    11    20    19    1
    12    19    18    1
    13    18     1    1
    14     1     2    1
    15     2     3    1
    16     3     4    1
    17     4     7    1
    18     7     8   am
    19     8     9    2
    20     8    10    1
    21    10    11    2
    22    11    12    1
    23    12    13    1
    24    13    14    1
    25    13    15    2
    26    15    16    1
    27    16    17    2
    28     4     5    1
    29     5     6    1
    30    30    22   am
    31     6     1    1
    32    29    24    1
    33    17     7    1
    34    17    11    1
@<TRIPOS>MOLECULE
*****
 30 34 0 0 0
SMALL
GASTEIGER

@<TRIPOS>ATOM
      1 N         143.0770  141.0760  162.0996 N.3     1  UNL1       -0.2725
      2 C         141.8799  140.3136  162.5850 C.3     1  UNL1        0.0738
      3 C         141.6984  140.0567  164.0516 C.3     1  UNL1        0.0376
      4 C         142.7141  140.5621  165.0330 C.3     1  UNL1        0.0841
      5 C         143.9111  141.3246  164.5476 C.3     1  UNL1        0.0376
      6 C         144.0927  141.5815  163.0810 C.3     1  UNL1        0.0738
      7 N         142.5325  140.3052  166.4996 N.am    1  UNL1       -0.2423
      8 C         143.1050  139.1526  167.2703 C.2     1  UNL1        0.3310
      9 O         143.9594  138.0546  166.7096 O.2     1  UNL1       -0.2501
     10 N         142.6729  139.2908  168.7000 N.am    1  UNL1       -0.1647
     11 C         141.8335  140.5288  168.8130 C.2     1  UNL1        0.0715
     12 C         141.1369  141.1662  169.9786 C.3     1  UNL1        0.0824
     13 C         140.3536  142.4306  169.7841 C.2     1  UNL1        0.0412
     14 CL        139.6570  143.0680  170.9496 Cl      1  UNL1       -0.0865
     15 C         140.2668  143.0575  168.4242 C.2     1  UNL1        0.0087
     16 C         140.9634  142.4200  167.2587 C.2     1  UNL1        0.0165
     17 C         141.7467  141.1557  167.4530 C.2     1  UNL1        0.0669
     18 C         143.2585  141.3330  160.6330 C.3     1  UNL1        0.0739
     19 C         142.0612  141.5487  159.7555 C.3     1  UNL1        0.0393
     20 C         141.3351  142.8607  159.7867 C.3     1  UNL1        0.1013
     21 O         138.3034  142.0176  158.9222 O.2     1  UNL1       -0.2501
     22 C         138.7094  142.6287  160.2305 C.2     1  UNL1        0.3310
     23 N         137.7932  142.9596  161.3711 N.am    1  UNL1       -0.1647
     24 C         138.6205  143.5517  162.4735 C.2     1  UNL1        0.0706
     25 C         138.2583  144.0635  163.8361 C.3     1  UNL1        0.0705
     26 C         139.3237  144.6102  164.7394 C.2     1  UNL1       -0.0199
     27 C         140.7512  144.6452  164.2801 C.2     1  UNL1       -0.0029
     28 C         141.1133  144.1335  162.9174 C.2     1  UNL1        0.0156
     29 C         140.0480  143.5867  162.0141 C.2     1  UNL1        0.0669
     30 N         140.1029  143.0163  160.6279 N.am    1  UNL1       -0.2407
@<TRIPOS>BOND
     1    21    22    2
     2    22    23    1
     3    23    24    2
     4    24    25    1
     5    25    26    1
     6    26    27    2
     7    27    28    1
     8    28    29    2
     9    29    30    1
    10    30    20    1
    11    20    19    1
    12    19    18    1
    13    18     1    1
    14     1     2    1
    15     2     3    1
    16     3     4    1
    17     4     7    1
    18     7     8   am
    19     8     9    2
    20     8    10    1
    21    10    11    2
    22    11    12    1
    23    12    13    1
    24    13    14    1
    25    13    15    2
    26    15    16    1
    27    16    17    2
    28     4     5    1
    29     5     6    1
    30    30    22   am
    31     6     1    1
    32    29    24    1
    33    17     7    1
    34    17    11    1
@<TRIPOS>MOLECULE
*****
 30 34 0 0 0
SMALL
GASTEIGER

@<TRIPOS>ATOM
      1 N         141.9626  139.2925  161.4831 N.3     1  UNL1       -0.2725
      2 C         141.8408  140.7860  161.5488 C.3     1  UNL1        0.0738
      3 C         142.1815  141.5113  162.8168 C.3     1  UNL1        0.0376
      4 C         142.6441  140.7429  164.0192 C.3     1  UNL1        0.0841
      5 C         142.7660  139.2494  163.9534 C.3     1  UNL1        0.0376
      6 C         142.4252  138.5241  162.6854 C.3     1  UNL1        0.0738
      7 N         142.9849  141.4682  165.2872 N.am    1  UNL1       -0.2423
      8 C         143.9132  142.6399  165.4105 C.2     1  UNL1        0.3310
      9 O         144.6638  143.2922  164.2875 O.2     1  UNL1       -0.2501
     10 N         143.9592  143.0449  166.8541 N.am    1  UNL1       -0.1647
     11 C         143.0594  142.1235  167.6229 C.2     1  UNL1        0.0715
     12 C         142.7104  142.0458  169.0797 C.3     1  UNL1        0.0824
     13 C         141.7593  140.9937  169.5681 C.2     1  UNL1        0.0412
     14 CL        141.4104  140.9160  171.0249 Cl      1  UNL1       -0.0865
     15 C         141.1572  140.0192  168.5997 C.2     1  UNL1        0.0087
     16 C         141.5061  140.0968  167.1429 C.2     1  UNL1        0.0165
     17 C         142.4572  141.1489  166.6545 C.2     1  UNL1        0.0669
     18 C         141.6218  138.5672  160.2150 C.3     1  UNL1        0.0739
     19 C         140.2413  138.6735  159.6380 C.3     1  UNL1        0.0393
     20 C         139.0470  138.3509  160.4861 C.3     1  UNL1        0.1013
     21 O         138.1113  141.4657  160.2169 O.2     1  UNL1       -0.2501
     22 C         138.2339  140.6892  161.4944 C.2     1  UNL1        0.3310
     23 N         137.9480  141.2080  162.8724 N.am    1  UNL1       -0.1647
     24 C         138.2014  140.0970  163.8479 C.2     1  UNL1        0.0706
     25 C         138.0863  140.0273  165.3418 C.3     1  UNL1        0.0705
     26 C         138.4138  138.7521  166.0605 C.2     1  UNL1       -0.0199
     27 C         138.8564  137.5466  165.2853 C.2     1  UNL1       -0.0029
     28 C         138.9714  137.6163  163.7914 C.2     1  UNL1        0.0156
     29 C         138.6439  138.8915  163.0727 C.2     1  UNL1        0.0669
     30 N         138.6640  139.2575  161.6182 N.am    1  UNL1       -0.2407
@<TRIPOS>BOND
     1    21    22    2
     2    22    23    1
     3    23    24    2
     4    24    25    1
     5    25    26    1
     6    26    27    2
     7    27    28    1
     8    28    29    2
     9    29    30    1
    10    30    20    1
    11    20    19    1
    12    19    18    1
    13    18     1    1
    14     1     2    1
    15     2     3    1
    16     3     4    1
    17     4     7    1
    18     7     8   am
    19     8     9    2
    20     8    10    1
    21    10    11    2
    22    11    12    1
    23    12    13    1
    24    13    14    1
    25    13    15    2
    26    15    16    1
    27    16    17    2
    28     4     5    1
    29     5     6    1
    30    30    22   am
    31     6     1    1
    32    29    24    1
    33    17     7    1
    34    17    11    1
