@<TRIPOS>MOLECULE
*****
 35 38 0 0 0
SMALL
GASTEIGER

@<TRIPOS>ATOM
      1 N         138.9359  139.9020  164.7731 N.am    1  UNL1       -0.2679
      2 C         139.8997  139.3290  165.7695 C.2     1  UNL1        0.2495
      3 O         140.5989  138.0343  165.4777 O.2     1  UNL1       -0.2699
      4 C         140.1644  140.0506  167.0576 C.ar    1  UNL1        0.0542
      5 C         139.1922  139.9374  168.1942 C.ar    1  UNL1        0.0061
      6 C         139.4569  140.6590  169.4823 C.ar    1  UNL1        0.0198
      7 C         140.6939  141.4938  169.6338 C.ar    1  UNL1        0.0892
      8 N         141.2180  142.3134  170.7756 N.ar    1  UNL1       -0.2245
      9 C         142.5142  142.9331  170.3446 C.ar    1  UNL1        0.1567
     10 N         143.3813  143.8318  171.1758 N.pl3   1  UNL1       -0.3375
     11 S         142.7912  142.4965  168.9365 S.2     1  UNL1       -0.0520
     12 C         141.6662  141.6070  168.4972 C.ar    1  UNL1        0.0498
     13 C         141.4014  140.8854  167.2091 C.ar    1  UNL1        0.0126
     14 H         143.1131  144.0623  172.0946 H       1  UNL1        0.1442
     15 H         144.2184  144.1910  170.8025 H       1  UNL1        0.1442
     16 C         138.6713  139.1804  163.4850 C.3     1  UNL1        0.1209
     17 C         141.4075  139.7851  159.9640 C.ar    1  UNL1        0.1724
     18 C         140.2983  140.7598  160.2279 C.ar    1  UNL1        0.0398
     19 C         139.3862  140.5583  161.4016 C.ar    1  UNL1        0.0007
     20 C         139.5833  139.3819  162.3113 C.ar    1  UNL1        0.0009
     21 C         140.6925  138.4073  162.0473 C.ar    1  UNL1        0.0374
     22 C         141.6046  138.6088  160.8737 C.ar    1  UNL1        0.1721
     23 C         143.6398  140.6740  158.9758 C.3     1  UNL1        0.2526
     24 O         142.3196  139.9866  158.7903 O.3     1  UNL1       -0.4684
     25 O         142.7137  137.6341  160.6097 O.3     1  UNL1       -0.4684
     26 C         144.0228  137.7749  161.3285 C.3     1  UNL1        0.2526
     27 C         138.2368  141.1966  165.0649 C.3     1  UNL1        0.1208
     28 C         138.6414  142.4471  164.3418 C.ar    1  UNL1       -0.0014
     29 C         137.6660  143.1386  163.4361 C.ar    1  UNL1       -0.0017
     30 C         138.0707  144.3889  162.7130 C.ar    1  UNL1        0.0120
     31 C         139.4506  144.9478  162.8957 C.ar    1  UNL1        0.0682
     32 CL        139.8552  146.1982  162.1726 Cl      1  UNL1       -0.0814
     33 C         140.4260  144.2563  163.8015 C.ar    1  UNL1        0.0679
     34 CL        141.8060  144.8151  163.9842 Cl      1  UNL1       -0.0814
     35 C         140.0214  143.0059  164.5245 C.ar    1  UNL1        0.0096
@<TRIPOS>BOND
     1    23    24    1
     2    24    17    1
     3    17    18   ar
     4    18    19   ar
     5    19    20   ar
     6    20    16    1
     7    16     1    1
     8     1    27    1
     9    27    28    1
    10    28    29   ar
    11    29    30   ar
    12    30    31   ar
    13    31    32    1
    14    31    33   ar
    15    33    34    1
    16    33    35   ar
    17     1     2   am
    18     2     3    2
    19     2     4    1
    20     4     5   ar
    21     5     6   ar
    22     6     7   ar
    23     7     8   ar
    24     8     9   ar
    25     9    10    1
    26     9    11   ar
    27    11    12   ar
    28    12    13   ar
    29    20    21   ar
    30    21    22   ar
    31    22    25    1
    32    25    26    1
    33    22    17   ar
    34    35    28   ar
    35    13     4   ar
    36    12     7   ar
    37    10    14    1
    38    10    15    1
@<TRIPOS>MOLECULE
*****
 35 38 0 0 0
SMALL
GASTEIGER

@<TRIPOS>ATOM
      1 N         141.2137  138.8374  164.9597 N.am    1  UNL1       -0.2679
      2 C         142.1633  139.0487  166.1014 C.2     1  UNL1        0.2495
      3 O         143.3337  138.1284  166.2837 O.2     1  UNL1       -0.2699
      4 C         141.9426  140.1804  167.0609 C.ar    1  UNL1        0.0542
      5 C         142.9122  141.3239  167.1078 C.ar    1  UNL1        0.0061
      6 C         142.6914  142.4556  168.0673 C.ar    1  UNL1        0.0198
      7 C         141.5011  142.4437  168.9799 C.ar    1  UNL1        0.0892
      8 N         141.0259  143.4120  170.0224 N.ar    1  UNL1       -0.2245
      9 C         139.7626  142.8669  170.6198 C.ar    1  UNL1        0.1567
     10 N         138.9479  143.5134  171.7007 N.pl3   1  UNL1       -0.3375
     11 S         139.4571  141.5617  169.9466 S.2     1  UNL1       -0.0520
     12 C         140.5315  141.3002  168.9331 C.ar    1  UNL1        0.0498
     13 C         140.7523  140.1686  167.9736 C.ar    1  UNL1        0.0126
     14 H         139.2317  144.3755  172.0821 H       1  UNL1        0.1442
     15 H         138.1294  143.0755  172.0288 H       1  UNL1        0.1442
     16 C         141.4345  137.7057  164.0002 C.3     1  UNL1        0.1209
     17 C         142.9939  138.5365  159.8616 C.ar    1  UNL1        0.1724
     18 C         143.9438  138.4630  161.0203 C.ar    1  UNL1        0.0398
     19 C         143.4240  138.1861  162.3998 C.ar    1  UNL1        0.0007
     20 C         141.9543  137.9826  162.6207 C.ar    1  UNL1        0.0009
     21 C         141.0045  138.0562  161.4621 C.ar    1  UNL1        0.0374
     22 C         141.5243  138.3331  160.0825 C.ar    1  UNL1        0.1721
     23 C         143.7359  140.2277  158.0342 C.3     1  UNL1        0.2526
     24 O         143.5137  138.8135  158.4821 O.3     1  UNL1       -0.4684
     25 O         140.5745  138.4066  158.9239 O.3     1  UNL1       -0.4684
     26 C         139.6118  139.5518  158.8148 C.3     1  UNL1        0.2526
     27 C         140.0434  139.7578  164.7774 C.3     1  UNL1        0.1208
     28 C         140.2681  141.1888  164.3879 C.ar    1  UNL1       -0.0014
     29 C         141.3522  141.5391  163.4122 C.ar    1  UNL1       -0.0017
     30 C         141.5770  142.9701  163.0227 C.ar    1  UNL1        0.0120
     31 C         140.7176  144.0507  163.6089 C.ar    1  UNL1        0.0682
     32 CL        140.9423  145.4818  163.2193 Cl      1  UNL1       -0.0814
     33 C         139.6335  143.7005  164.5845 C.ar    1  UNL1        0.0679
     34 CL        138.7741  144.7811  165.1707 Cl      1  UNL1       -0.0814
     35 C         139.4088  142.2695  164.9740 C.ar    1  UNL1        0.0096
@<TRIPOS>BOND
     1    23    24    1
     2    24    17    1
     3    17    18   ar
     4    18    19   ar
     5    19    20   ar
     6    20    16    1
     7    16     1    1
     8     1    27    1
     9    27    28    1
    10    28    29   ar
    11    29    30   ar
    12    30    31   ar
    13    31    32    1
    14    31    33   ar
    15    33    34    1
    16    33    35   ar
    17     1     2   am
    18     2     3    2
    19     2     4    1
    20     4     5   ar
    21     5     6   ar
    22     6     7   ar
    23     7     8   ar
    24     8     9   ar
    25     9    10    1
    26     9    11   ar
    27    11    12   ar
    28    12    13   ar
    29    20    21   ar
    30    21    22   ar
    31    22    25    1
    32    25    26    1
    33    22    17   ar
    34    35    28   ar
    35    13     4   ar
    36    12     7   ar
    37    10    14    1
    38    10    15    1
@<TRIPOS>MOLECULE
*****
 35 38 0 0 0
SMALL
GASTEIGER

@<TRIPOS>ATOM
      1 N         139.0905  139.8707  164.7629 N.am    1  UNL1       -0.2679
      2 C         140.0657  139.3319  165.7672 C.2     1  UNL1        0.2495
      3 O         140.8147  138.0644  165.4801 O.2     1  UNL1       -0.2699
      4 C         140.2919  140.0607  167.0587 C.ar    1  UNL1        0.0542
      5 C         139.2890  139.9490  168.1684 C.ar    1  UNL1        0.0061
      6 C         139.5152  140.6777  169.4598 C.ar    1  UNL1        0.0198
      7 C         140.7444  141.5181  169.6414 C.ar    1  UNL1        0.0892
      8 N         141.2336  142.3452  170.7933 N.ar    1  UNL1       -0.2245
      9 C         142.5389  142.9680  170.3953 C.ar    1  UNL1        0.1567
     10 N         143.3792  143.8739  171.2458 N.pl3   1  UNL1       -0.3375
     11 S         142.8563  142.5258  168.9976 S.2     1  UNL1       -0.0520
     12 C         141.7473  141.6297  168.5317 C.ar    1  UNL1        0.0498
     13 C         141.5210  140.9010  167.2403 C.ar    1  UNL1        0.0126
     14 H         143.0849  144.1077  172.1557 H       1  UNL1        0.1442
     15 H         144.2250  144.2346  170.8940 H       1  UNL1        0.1442
     16 C         138.8643  139.1420  163.4714 C.3     1  UNL1        0.1209
     17 C         142.0429  139.1690  160.2861 C.ar    1  UNL1        0.1724
     18 C         141.8460  137.9507  161.1388 C.ar    1  UNL1        0.0398
     19 C         140.7864  137.9417  162.2006 C.ar    1  UNL1        0.0007
     20 C         139.9238  139.1510  162.4096 C.ar    1  UNL1        0.0009
     21 C         140.1208  140.3692  161.5569 C.ar    1  UNL1        0.0374
     22 C         141.1803  140.3782  160.4951 C.ar    1  UNL1        0.1721
     23 C         142.7993  138.6391  157.8577 C.3     1  UNL1        0.2526
     24 O         143.1024  139.1780  159.2244 O.3     1  UNL1       -0.4684
     25 O         141.3773  141.5964  159.6424 O.3     1  UNL1       -0.4684
     26 C         140.8822  142.9310  160.1154 C.3     1  UNL1        0.2526
     27 C         138.3415  141.1382  165.0499 C.3     1  UNL1        0.1208
     28 C         138.7046  142.4033  164.3303 C.ar    1  UNL1       -0.0014
     29 C         137.6971  143.0804  163.4491 C.ar    1  UNL1       -0.0017
     30 C         138.0602  144.3454  162.7295 C.ar    1  UNL1        0.0120
     31 C         139.4307  144.9333  162.8911 C.ar    1  UNL1        0.0682
     32 CL        139.7937  146.1984  162.1714 Cl      1  UNL1       -0.0814
     33 C         140.4381  144.2562  163.7723 C.ar    1  UNL1        0.0679
     34 CL        141.8086  144.8441  163.9339 Cl      1  UNL1       -0.0814
     35 C         140.0751  142.9912  164.4919 C.ar    1  UNL1        0.0096
@<TRIPOS>BOND
     1    23    24    1
     2    24    17    1
     3    17    18   ar
     4    18    19   ar
     5    19    20   ar
     6    20    16    1
     7    16     1    1
     8     1    27    1
     9    27    28    1
    10    28    29   ar
    11    29    30   ar
    12    30    31   ar
    13    31    32    1
    14    31    33   ar
    15    33    34    1
    16    33    35   ar
    17     1     2   am
    18     2     3    2
    19     2     4    1
    20     4     5   ar
    21     5     6   ar
    22     6     7   ar
    23     7     8   ar
    24     8     9   ar
    25     9    10    1
    26     9    11   ar
    27    11    12   ar
    28    12    13   ar
    29    20    21   ar
    30    21    22   ar
    31    22    25    1
    32    25    26    1
    33    22    17   ar
    34    35    28   ar
    35    13     4   ar
    36    12     7   ar
    37    10    14    1
    38    10    15    1
@<TRIPOS>MOLECULE
*****
 35 38 0 0 0
SMALL
GASTEIGER

@<TRIPOS>ATOM
      1 N         142.4129  139.2043  165.0060 N.am    1  UNL1       -0.2679
      2 C         143.7314  139.2455  164.2920 C.2     1  UNL1        0.2495
      3 O         145.0042  139.0222  165.0537 O.2     1  UNL1       -0.2699
      4 C         143.7772  139.5100  162.8161 C.ar    1  UNL1        0.0542
      5 C         143.5903  138.3816  161.8458 C.ar    1  UNL1        0.0061
      6 C         143.6361  138.6462  160.3700 C.ar    1  UNL1        0.0198
      7 C         143.8689  140.0392  159.8647 C.ar    1  UNL1        0.0892
      8 N         143.9640  140.6006  158.4769 N.ar    1  UNL1       -0.2245
      9 C         144.2098  142.0760  158.5896 C.ar    1  UNL1        0.1567
     10 N         144.3706  143.0331  157.4458 N.pl3   1  UNL1       -0.3375
     11 S         144.2665  142.4264  160.0471 S.2     1  UNL1       -0.0520
     12 C         144.0558  141.1676  160.8350 C.ar    1  UNL1        0.0498
     13 C         144.0100  140.9030  162.3108 C.ar    1  UNL1        0.0126
     14 H         144.3171  142.7057  156.5189 H       1  UNL1        0.1442
     15 H         144.5296  143.9885  157.6220 H       1  UNL1        0.1442
     16 C         142.3671  138.9397  166.4818 C.3     1  UNL1        0.1209
     17 C         141.6957  142.3360  169.3566 C.ar    1  UNL1        0.1724
     18 C         142.8064  142.4128  168.3513 C.ar    1  UNL1        0.0398
     19 C         143.0302  141.2807  167.3930 C.ar    1  UNL1        0.0007
     20 C         142.1433  140.0718  167.4401 C.ar    1  UNL1        0.0009
     21 C         141.0327  139.9951  168.4453 C.ar    1  UNL1        0.0374
     22 C         140.8089  141.1272  169.4036 C.ar    1  UNL1        0.1721
     23 C         140.3281  144.4151  170.1029 C.3     1  UNL1        0.2526
     24 O         141.4718  143.4681  170.3148 O.3     1  UNL1       -0.4684
     25 O         139.6982  141.0505  170.4088 O.3     1  UNL1       -0.4684
     26 C         138.4833  140.2187  170.1221 C.3     1  UNL1        0.2526
     27 C         141.1402  139.4276  164.2442 C.3     1  UNL1        0.1208
     28 C         140.4002  140.7249  164.3840 C.ar    1  UNL1       -0.0014
     29 C         138.9224  140.7215  164.6412 C.ar    1  UNL1       -0.0017
     30 C         138.1825  142.0187  164.7810 C.ar    1  UNL1        0.0120
     31 C         138.9204  143.3194  164.6637 C.ar    1  UNL1        0.0682
     32 CL        138.1804  144.6167  164.8035 Cl      1  UNL1       -0.0814
     33 C         140.3981  143.3229  164.4065 C.ar    1  UNL1        0.0679
     34 CL        141.1360  144.6236  164.2892 Cl      1  UNL1       -0.0814
     35 C         141.1380  142.0256  164.2667 C.ar    1  UNL1        0.0096
@<TRIPOS>BOND
     1    23    24    1
     2    24    17    1
     3    17    18   ar
     4    18    19   ar
     5    19    20   ar
     6    20    16    1
     7    16     1    1
     8     1    27    1
     9    27    28    1
    10    28    29   ar
    11    29    30   ar
    12    30    31   ar
    13    31    32    1
    14    31    33   ar
    15    33    34    1
    16    33    35   ar
    17     1     2   am
    18     2     3    2
    19     2     4    1
    20     4     5   ar
    21     5     6   ar
    22     6     7   ar
    23     7     8   ar
    24     8     9   ar
    25     9    10    1
    26     9    11   ar
    27    11    12   ar
    28    12    13   ar
    29    20    21   ar
    30    21    22   ar
    31    22    25    1
    32    25    26    1
    33    22    17   ar
    34    35    28   ar
    35    13     4   ar
    36    12     7   ar
    37    10    14    1
    38    10    15    1
@<TRIPOS>MOLECULE
*****
 35 38 0 0 0
SMALL
GASTEIGER

@<TRIPOS>ATOM
      1 N         143.8391  141.3495  163.9742 N.am    1  UNL1       -0.2679
      2 C         143.4169  140.0290  164.5469 C.2     1  UNL1        0.2495
      3 O         144.0305  138.7592  164.0359 O.2     1  UNL1       -0.2699
      4 C         142.3809  139.9782  165.6305 C.ar    1  UNL1        0.0542
      5 C         140.9281  139.8653  165.2746 C.ar    1  UNL1        0.0061
      6 C         139.8923  139.8145  166.3582 C.ar    1  UNL1        0.0198
      7 C         140.3091  139.8767  167.7978 C.ar    1  UNL1        0.0892
      8 N         139.5202  139.8481  169.0733 N.ar    1  UNL1       -0.2245
      9 C         140.4854  139.9434  170.2175 C.ar    1  UNL1        0.1567
     10 N         140.1280  139.9500  171.6744 N.pl3   1  UNL1       -0.3375
     11 S         141.8708  140.0309  169.6492 S.2     1  UNL1       -0.0520
     12 C         141.7618  139.9897  168.1537 C.ar    1  UNL1        0.0498
     13 C         142.7977  140.0404  167.0701 C.ar    1  UNL1        0.0126
     14 H         139.1849  139.8880  171.9502 H       1  UNL1        0.1442
     15 H         140.8365  140.0164  172.3547 H       1  UNL1        0.1442
     16 C         144.8751  141.4002  162.8906 C.3     1  UNL1        0.1209
     17 C         143.6233  141.2308  158.5715 C.ar    1  UNL1        0.1724
     18 C         143.9592  142.5489  159.2039 C.ar    1  UNL1        0.0398
     19 C         144.3764  142.6054  160.6436 C.ar    1  UNL1        0.0007
     20 C         144.4578  141.3438  161.4509 C.ar    1  UNL1        0.0009
     21 C         144.1220  140.0257  160.8185 C.ar    1  UNL1        0.0374
     22 C         143.7047  139.9692  159.3788 C.ar    1  UNL1        0.1721
     23 C         144.2381  141.2699  156.0475 C.3     1  UNL1        0.2526
     24 O         143.2061  141.1743  157.1318 O.3     1  UNL1       -0.4684
     25 O         143.3689  138.6512  158.7464 O.3     1  UNL1       -0.4684
     26 C         141.9451  138.3235  158.4065 C.3     1  UNL1        0.2526
     27 C         143.2255  142.6193  164.4852 C.3     1  UNL1        0.1208
     28 C         141.8303  142.9936  164.0810 C.ar    1  UNL1       -0.0014
     29 C         141.3006  142.5776  162.7407 C.ar    1  UNL1       -0.0017
     30 C         139.9054  142.9520  162.3366 C.ar    1  UNL1        0.0120
     31 C         139.0400  143.7423  163.2727 C.ar    1  UNL1        0.0682
     32 CL        137.6448  144.1167  162.8685 Cl      1  UNL1       -0.0814
     33 C         139.5696  144.1583  164.6129 C.ar    1  UNL1        0.0679
     34 CL        138.7042  144.9486  165.5491 Cl      1  UNL1       -0.0814
     35 C         140.9648  143.7839  165.0171 C.ar    1  UNL1        0.0096
@<TRIPOS>BOND
     1    23    24    1
     2    24    17    1
     3    17    18   ar
     4    18    19   ar
     5    19    20   ar
     6    20    16    1
     7    16     1    1
     8     1    27    1
     9    27    28    1
    10    28    29   ar
    11    29    30   ar
    12    30    31   ar
    13    31    32    1
    14    31    33   ar
    15    33    34    1
    16    33    35   ar
    17     1     2   am
    18     2     3    2
    19     2     4    1
    20     4     5   ar
    21     5     6   ar
    22     6     7   ar
    23     7     8   ar
    24     8     9   ar
    25     9    10    1
    26     9    11   ar
    27    11    12   ar
    28    12    13   ar
    29    20    21   ar
    30    21    22   ar
    31    22    25    1
    32    25    26    1
    33    22    17   ar
    34    35    28   ar
    35    13     4   ar
    36    12     7   ar
    37    10    14    1
    38    10    15    1
@<TRIPOS>MOLECULE
*****
 35 38 0 0 0
SMALL
GASTEIGER

@<TRIPOS>ATOM
      1 N         139.1689  140.3213  162.4609 N.am    1  UNL1       -0.2679
      2 C         138.3176  140.8688  163.5678 C.2     1  UNL1        0.2495
      3 O         137.1365  141.7359  163.2469 O.2     1  UNL1       -0.2699
      4 C         138.6474  140.5492  164.9959 C.ar    1  UNL1        0.0542
      5 C         138.0670  139.3275  165.6443 C.ar    1  UNL1        0.0061
      6 C         138.3968  139.0079  167.0722 C.ar    1  UNL1        0.0198
      7 C         139.3070  139.9102  167.8518 C.ar    1  UNL1        0.0892
      8 N         139.8085  139.8525  169.2643 N.ar    1  UNL1       -0.2245
      9 C         140.6987  141.0386  169.4889 C.ar    1  UNL1        0.1567
     10 N         141.4146  141.3751  170.7634 N.pl3   1  UNL1       -0.3375
     11 S         140.7475  141.8293  168.2151 S.2     1  UNL1       -0.0520
     12 C         139.8873  141.1319  167.2033 C.ar    1  UNL1        0.0498
     13 C         139.5575  141.4514  165.7754 C.ar    1  UNL1        0.0126
     14 H         141.3197  140.7910  171.5502 H       1  UNL1        0.1442
     15 H         141.9794  142.1799  170.8131 H       1  UNL1        0.1442
     16 C         138.8391  140.6409  161.0329 C.3     1  UNL1        0.1209
     17 C         140.9122  144.0513  158.9540 C.ar    1  UNL1        0.1724
     18 C         141.2007  142.6371  158.5452 C.ar    1  UNL1        0.0398
     19 C         140.5097  141.5003  159.2382 C.ar    1  UNL1        0.0007
     20 C         139.5302  141.7777  160.3399 C.ar    1  UNL1        0.0009
     21 C         139.2417  143.1918  160.7486 C.ar    1  UNL1        0.0374
     22 C         139.9327  144.3286  160.0556 C.ar    1  UNL1        0.1721
     23 C         142.2841  144.9610  156.9440 C.3     1  UNL1        0.2526
     24 O         141.6032  145.1881  158.2610 O.3     1  UNL1       -0.4684
     25 O         139.6443  145.7427  160.4643 O.3     1  UNL1       -0.4684
     26 C         139.9042  146.1838  161.8743 C.3     1  UNL1        0.2526
     27 C         140.3501  139.4542  162.7819 C.3     1  UNL1        0.1208
     28 C         141.6808  140.0794  163.0790 C.ar    1  UNL1       -0.0014
     29 C         141.9226  141.5221  162.7469 C.ar    1  UNL1       -0.0017
     30 C         143.2532  142.1473  163.0441 C.ar    1  UNL1        0.0120
     31 C         144.3422  141.3298  163.6734 C.ar    1  UNL1        0.0682
     32 CL        145.6729  141.9551  163.9706 Cl      1  UNL1       -0.0814
     33 C         144.1004  139.8872  164.0055 C.ar    1  UNL1        0.0679
     34 CL        145.1894  139.0697  164.6348 Cl      1  UNL1       -0.0814
     35 C         142.7697  139.2620  163.7083 C.ar    1  UNL1        0.0096
@<TRIPOS>BOND
     1    23    24    1
     2    24    17    1
     3    17    18   ar
     4    18    19   ar
     5    19    20   ar
     6    20    16    1
     7    16     1    1
     8     1    27    1
     9    27    28    1
    10    28    29   ar
    11    29    30   ar
    12    30    31   ar
    13    31    32    1
    14    31    33   ar
    15    33    34    1
    16    33    35   ar
    17     1     2   am
    18     2     3    2
    19     2     4    1
    20     4     5   ar
    21     5     6   ar
    22     6     7   ar
    23     7     8   ar
    24     8     9   ar
    25     9    10    1
    26     9    11   ar
    27    11    12   ar
    28    12    13   ar
    29    20    21   ar
    30    21    22   ar
    31    22    25    1
    32    25    26    1
    33    22    17   ar
    34    35    28   ar
    35    13     4   ar
    36    12     7   ar
    37    10    14    1
    38    10    15    1
@<TRIPOS>MOLECULE
*****
 35 38 0 0 0
SMALL
GASTEIGER

@<TRIPOS>ATOM
      1 N         139.2789  139.2850  164.6360 N.am    1  UNL1       -0.2679
      2 C         140.0248  138.2018  163.9146 C.2     1  UNL1        0.2495
      3 O         140.4928  136.9880  164.6614 O.2     1  UNL1       -0.2699
      4 C         140.3028  138.3324  162.4463 C.ar    1  UNL1        0.0542
      5 C         139.1878  138.1762  161.4552 C.ar    1  UNL1        0.0061
      6 C         139.4658  138.3068  159.9870 C.ar    1  UNL1        0.0198
      7 C         140.8587  138.5936  159.5100 C.ar    1  UNL1        0.0892
      8 N         141.4316  138.7746  158.1355 N.ar    1  UNL1       -0.2245
      9 C         142.9007  139.0426  158.2773 C.ar    1  UNL1        0.1567
     10 N         143.8654  139.2836  157.1542 N.pl3   1  UNL1       -0.3375
     11 S         143.2356  139.0273  159.7393 S.2     1  UNL1       -0.0520
     12 C         141.9737  138.7499  160.5011 C.ar    1  UNL1        0.0498
     13 C         141.6957  138.6193  161.9693 C.ar    1  UNL1        0.0126
     14 H         143.5483  139.2739  156.2222 H       1  UNL1        0.1442
     15 H         144.8157  139.4515  157.3490 H       1  UNL1        0.1442
     16 C         139.0010  139.1544  166.1043 C.3     1  UNL1        0.1209
     17 C         141.9930  140.6704  169.1041 C.ar    1  UNL1        0.1724
     18 C         142.4642  140.0662  167.8145 C.ar    1  UNL1        0.0398
     19 C         141.4668  139.5609  166.8145 C.ar    1  UNL1        0.0007
     20 C         139.9983  139.6597  167.1042 C.ar    1  UNL1        0.0009
     21 C         139.5272  140.2639  168.3938 C.ar    1  UNL1        0.0374
     22 C         140.5246  140.7692  169.3937 C.ar    1  UNL1        0.1721
     23 C         143.5131  142.5778  169.9992 C.3     1  UNL1        0.2526
     24 O         142.9904  141.1758  170.1041 O.3     1  UNL1       -0.4684
     25 O         140.0535  141.3734  170.6833 O.3     1  UNL1       -0.4684
     26 C         139.7593  142.8423  170.7601 C.3     1  UNL1        0.2526
     27 C         138.8110  140.4987  163.8892 C.3     1  UNL1        0.1208
     28 C         139.6445  141.7459  163.8874 C.ar    1  UNL1       -0.0014
     29 C         139.5497  142.7129  165.0301 C.ar    1  UNL1       -0.0017
     30 C         140.3832  143.9600  165.0283 C.ar    1  UNL1        0.0120
     31 C         141.3115  144.2400  163.8838 C.ar    1  UNL1        0.0682
     32 CL        142.1451  145.4871  163.8820 Cl      1  UNL1       -0.0814
     33 C         141.4063  143.2730  162.7411 C.ar    1  UNL1        0.0679
     34 CL        142.3346  143.5530  161.5966 Cl      1  UNL1       -0.0814
     35 C         140.5728  142.0259  162.7429 C.ar    1  UNL1        0.0096
@<TRIPOS>BOND
     1    23    24    1
     2    24    17    1
     3    17    18   ar
     4    18    19   ar
     5    19    20   ar
     6    20    16    1
     7    16     1    1
     8     1    27    1
     9    27    28    1
    10    28    29   ar
    11    29    30   ar
    12    30    31   ar
    13    31    32    1
    14    31    33   ar
    15    33    34    1
    16    33    35   ar
    17     1     2   am
    18     2     3    2
    19     2     4    1
    20     4     5   ar
    21     5     6   ar
    22     6     7   ar
    23     7     8   ar
    24     8     9   ar
    25     9    10    1
    26     9    11   ar
    27    11    12   ar
    28    12    13   ar
    29    20    21   ar
    30    21    22   ar
    31    22    25    1
    32    25    26    1
    33    22    17   ar
    34    35    28   ar
    35    13     4   ar
    36    12     7   ar
    37    10    14    1
    38    10    15    1
@<TRIPOS>MOLECULE
*****
 35 38 0 0 0
SMALL
GASTEIGER

@<TRIPOS>ATOM
      1 N         139.2776  140.3006  162.6937 N.am    1  UNL1       -0.2679
      2 C         139.4355  138.8918  162.2036 C.2     1  UNL1        0.2495
      3 O         138.6042  137.7935  162.7975 O.2     1  UNL1       -0.2699
      4 C         140.4248  138.5812  161.1196 C.ar    1  UNL1        0.0542
      5 C         141.7881  138.0653  161.4737 C.ar    1  UNL1        0.0061
      6 C         142.7773  137.7547  160.3898 C.ar    1  UNL1        0.0198
      7 C         142.4032  137.9600  158.9518 C.ar    1  UNL1        0.0892
      8 N         143.1624  137.7427  157.6763 N.ar    1  UNL1       -0.2245
      9 C         142.2682  138.1243  156.5340 C.ar    1  UNL1        0.1567
     10 N         142.6234  138.0635  155.0779 N.pl3   1  UNL1       -0.3375
     11 S         140.9565  138.5774  157.1034 S.2     1  UNL1       -0.0520
     12 C         141.0400  138.4759  158.5977 C.ar    1  UNL1        0.0498
     13 C         140.0508  138.7865  159.6816 C.ar    1  UNL1        0.0126
     14 H         143.5148  137.7503  154.8013 H       1  UNL1        0.1442
     15 H         141.9651  138.3368  154.3988 H       1  UNL1        0.1442
     16 C         138.2884  140.6113  163.7776 C.3     1  UNL1        0.1209
     17 C         139.4326  140.0571  168.0943 C.ar    1  UNL1        0.1724
     18 C         138.5244  139.0677  167.4261 C.ar    1  UNL1        0.0398
     19 C         138.1430  139.2524  165.9873 C.ar    1  UNL1        0.0007
     20 C         138.6698  140.4265  165.2165 C.ar    1  UNL1        0.0009
     21 C         139.5779  141.4159  165.8847 C.ar    1  UNL1        0.0374
     22 C         139.9593  141.2311  167.3235 C.ar    1  UNL1        0.1721
     23 C         141.2291  139.5326  169.8963 C.3     1  UNL1        0.2526
     24 O         139.8140  139.8723  169.5332 O.3     1  UNL1       -0.4684
     25 O         140.8675  142.2205  167.9917 O.3     1  UNL1       -0.4684
     26 C         142.3438  142.1798  167.7291 C.3     1  UNL1        0.2526
     27 C         140.1090  141.3989  162.0998 C.3     1  UNL1        0.1208
     28 C         141.2317  142.0014  162.8914 C.ar    1  UNL1       -0.0014
     29 C         141.1854  143.4506  163.2754 C.ar    1  UNL1       -0.0017
     30 C         142.3081  144.0530  164.0669 C.ar    1  UNL1        0.0120
     31 C         143.4772  143.2062  164.4744 C.ar    1  UNL1        0.0682
     32 CL        144.6000  143.8087  165.2660 Cl      1  UNL1       -0.0814
     33 C         143.5236  141.7569  164.0904 C.ar    1  UNL1        0.0679
     34 CL        144.6926  140.9101  164.4980 Cl      1  UNL1       -0.0814
     35 C         142.4008  141.1545  163.2989 C.ar    1  UNL1        0.0096
@<TRIPOS>BOND
     1    23    24    1
     2    24    17    1
     3    17    18   ar
     4    18    19   ar
     5    19    20   ar
     6    20    16    1
     7    16     1    1
     8     1    27    1
     9    27    28    1
    10    28    29   ar
    11    29    30   ar
    12    30    31   ar
    13    31    32    1
    14    31    33   ar
    15    33    34    1
    16    33    35   ar
    17     1     2   am
    18     2     3    2
    19     2     4    1
    20     4     5   ar
    21     5     6   ar
    22     6     7   ar
    23     7     8   ar
    24     8     9   ar
    25     9    10    1
    26     9    11   ar
    27    11    12   ar
    28    12    13   ar
    29    20    21   ar
    30    21    22   ar
    31    22    25    1
    32    25    26    1
    33    22    17   ar
    34    35    28   ar
    35    13     4   ar
    36    12     7   ar
    37    10    14    1
    38    10    15    1
@<TRIPOS>MOLECULE
*****
 35 38 0 0 0
SMALL
GASTEIGER

@<TRIPOS>ATOM
      1 N         140.1955  139.1111  162.0278 N.am    1  UNL1       -0.2679
      2 C         140.7791  138.4948  163.2645 C.2     1  UNL1        0.2495
      3 O         142.0477  137.6990  163.1789 O.2     1  UNL1       -0.2699
      4 C         140.0940  138.6742  164.5868 C.ar    1  UNL1        0.0542
      5 C         138.8205  137.9369  164.8779 C.ar    1  UNL1        0.0061
      6 C         138.1355  138.1163  166.2002 C.ar    1  UNL1        0.0198
      7 C         138.7239  139.0330  167.2314 C.ar    1  UNL1        0.0892
      8 N         138.2773  139.4071  168.6137 N.ar    1  UNL1       -0.2245
      9 C         139.2747  140.3755  169.1769 C.ar    1  UNL1        0.1567
     10 N         139.2189  141.0084  170.5358 N.pl3   1  UNL1       -0.3375
     11 S         140.3378  140.6000  168.1427 S.2     1  UNL1       -0.0520
     12 C         139.9973  139.7703  166.9404 C.ar    1  UNL1        0.0498
     13 C         140.6824  139.5909  165.6181 C.ar    1  UNL1        0.0126
     14 H         138.4768  140.7970  171.1472 H       1  UNL1        0.1442
     15 H         139.9245  141.6351  170.8162 H       1  UNL1        0.1442
     16 C         140.8806  138.9317  160.7054 C.3     1  UNL1        0.1209
     17 C         142.6119  142.4926  158.5670 C.ar    1  UNL1        0.1724
     18 C         141.3876  141.8152  158.0261 C.ar    1  UNL1        0.0398
     19 C         140.8105  140.6283  158.7389 C.ar    1  UNL1        0.0007
     20 C         141.4577  140.1187  159.9926 C.ar    1  UNL1        0.0009
     21 C         142.6819  140.7960  160.5334 C.ar    1  UNL1        0.0374
     22 C         143.2590  141.9830  159.8206 C.ar    1  UNL1        0.1721
     23 C         142.3448  144.8970  157.6197 C.3     1  UNL1        0.2526
     24 O         143.1890  143.6796  157.8542 O.3     1  UNL1       -0.4684
     25 O         144.4832  142.6604  160.3614 O.3     1  UNL1       -0.4684
     26 C         144.4497  143.2982  161.7186 C.3     1  UNL1        0.2526
     27 C         138.9269  139.9069  162.1133 C.3     1  UNL1        0.1208
     28 C         138.8961  141.1877  162.8935 C.ar    1  UNL1       -0.0014
     29 C         137.7253  141.4992  163.7779 C.ar    1  UNL1       -0.0017
     30 C         137.6946  142.7800  164.5580 C.ar    1  UNL1        0.0120
     31 C         138.8347  143.7492  164.4538 C.ar    1  UNL1        0.0682
     32 CL        138.8039  145.0300  165.2341 Cl      1  UNL1       -0.0814
     33 C         140.0055  143.4377  163.5695 C.ar    1  UNL1        0.0679
     34 CL        141.1455  144.4069  163.4653 Cl      1  UNL1       -0.0814
     35 C         140.0362  142.1569  162.7893 C.ar    1  UNL1        0.0096
@<TRIPOS>BOND
     1    23    24    1
     2    24    17    1
     3    17    18   ar
     4    18    19   ar
     5    19    20   ar
     6    20    16    1
     7    16     1    1
     8     1    27    1
     9    27    28    1
    10    28    29   ar
    11    29    30   ar
    12    30    31   ar
    13    31    32    1
    14    31    33   ar
    15    33    34    1
    16    33    35   ar
    17     1     2   am
    18     2     3    2
    19     2     4    1
    20     4     5   ar
    21     5     6   ar
    22     6     7   ar
    23     7     8   ar
    24     8     9   ar
    25     9    10    1
    26     9    11   ar
    27    11    12   ar
    28    12    13   ar
    29    20    21   ar
    30    21    22   ar
    31    22    25    1
    32    25    26    1
    33    22    17   ar
    34    35    28   ar
    35    13     4   ar
    36    12     7   ar
    37    10    14    1
    38    10    15    1
