@<TRIPOS>MOLECULE
*****
 29 32 0 0 0
SMALL
GASTEIGER

@<TRIPOS>ATOM
      1 N         140.0475  143.2610  163.6531 N.3     1  UNL1       -0.2741
      2 C         140.5346  143.5340  162.2609 C.3     1  UNL1        0.0613
      3 C         139.5551  144.4579  161.5999 C.3     1  UNL1        0.0175
      4 C         138.4626  144.7558  162.5836 C.3     1  UNL1        0.0175
      5 C         138.7669  144.0161  163.8525 C.3     1  UNL1        0.0613
      6 C         139.3173  143.1755  164.9793 C.3     1  UNL1        0.0595
      7 C         140.6010  142.4802  164.6347 C.3     1  UNL1        0.1686
      8 C         141.2096  142.6594  163.2755 C.3     1  UNL1        0.0595
      9 C         139.8879  141.2232  164.2203 C.3     1  UNL1        0.0205
     10 C         140.7225  142.3864  164.6677 C.3     1  UNL1        0.0643
     11 C         141.5572  143.5496  165.1151 C.3     1  UNL1        0.0205
     12 C         141.3975  141.5118  165.6823 C.ar    1  UNL1       -0.0093
     13 C         142.2528  142.1253  166.7509 C.ar    1  UNL1       -0.0030
     14 C         142.9278  141.2506  167.7655 C.ar    1  UNL1       -0.0003
     15 C         142.7475  139.7624  167.7115 C.ar    1  UNL1       -0.0000
     16 C         141.8922  139.1489  166.6428 C.ar    1  UNL1       -0.0003
     17 C         141.2172  140.0236  165.6283 C.ar    1  UNL1       -0.0030
     18 O         141.2760  141.6055  165.6494 O.3     1  UNL1       -0.4791
     19 C         140.5926  141.2998  166.9492 C.ar    1  UNL1        0.1385
     20 C         139.7613  140.0587  167.0857 C.ar    1  UNL1        0.0369
     21 C         139.0779  139.7530  168.3855 C.ar    1  UNL1        0.0033
     22 C         139.2258  140.6883  169.5487 C.ar    1  UNL1        0.0047
     23 C         140.0570  141.9294  169.4122 C.ar    1  UNL1        0.0561
     24 C         140.7404  142.2352  168.1124 C.ar    1  UNL1        0.0414
     25 C         140.2049  142.8648  170.5755 C.2     1  UNL1        0.2428
     26 N         140.0975  144.3461  170.3652 N.am    1  UNL1       -0.3253
     27 O         140.4601  142.3188  171.9492 O.2     1  UNL1       -0.2704
     28 H         139.9300  144.7044  169.4636 H       1  UNL1        0.1453
     29 H         140.1945  144.9600  171.1287 H       1  UNL1        0.1453
@<TRIPOS>BOND
     1     9    10    1
     2    10    11    1
     3    10    12    1
     4    12    13   ar
     5    13    14   ar
     6    14    15   ar
     7    15    16   ar
     8    16    17   ar
     9    10     1    1
    10     1     2    1
    11     2     3    1
    12     3     4    1
    13     5     4    1
    14     5     6    1
    15     6     7    1
    16     7    18    1
    17    18    19    1
    18    19    20   ar
    19    20    21   ar
    20    21    22   ar
    21    22    23   ar
    22    23    25    1
    23    25    26   am
    24    25    27    2
    25    23    24   ar
    26     7     8    1
    27    17    12   ar
    28     5     1    1
    29    24    19   ar
    30     8     2    1
    31    26    28    1
    32    26    29    1
@<TRIPOS>MOLECULE
*****
 29 32 0 0 0
SMALL
GASTEIGER

@<TRIPOS>ATOM
      1 N         141.2210  140.7569  164.4031 N.3     1  UNL1       -0.2741
      2 C         140.6908  139.8911  163.2988 C.3     1  UNL1        0.0613
      3 C         140.8714  140.6278  162.0047 C.3     1  UNL1        0.0175
      4 C         141.5132  141.9490  162.3092 C.3     1  UNL1        0.0175
      5 C         141.7293  142.0287  163.7915 C.3     1  UNL1        0.0613
      6 C         141.8211  141.8340  165.2857 C.3     1  UNL1        0.0595
      7 C         141.2745  140.5171  165.7518 C.3     1  UNL1        0.1686
      8 C         140.7094  139.5457  164.7584 C.3     1  UNL1        0.0595
      9 C         139.8859  141.0363  166.0277 C.3     1  UNL1        0.0205
     10 C         141.2396  140.4115  165.8626 C.3     1  UNL1        0.0643
     11 C         142.5932  139.7866  165.6975 C.3     1  UNL1        0.0205
     12 C         141.2582  140.0660  167.3222 C.ar    1  UNL1       -0.0093
     13 C         140.0249  140.2579  168.1540 C.ar    1  UNL1       -0.0030
     14 C         140.0435  139.9124  169.6137 C.ar    1  UNL1       -0.0003
     15 C         141.2955  139.3751  170.2413 C.ar    1  UNL1       -0.0000
     16 C         142.5288  139.1832  169.4094 C.ar    1  UNL1       -0.0003
     17 C         142.5101  139.5287  167.9499 C.ar    1  UNL1       -0.0030
     18 O         141.2931  140.1717  167.2115 O.3     1  UNL1       -0.4791
     19 C         141.6804  141.2096  168.2229 C.ar    1  UNL1        0.1385
     20 C         143.1251  141.4174  168.5688 C.ar    1  UNL1        0.0369
     21 C         143.5123  142.4552  169.5801 C.ar    1  UNL1        0.0033
     22 C         142.4549  143.2852  170.2456 C.ar    1  UNL1        0.0047
     23 C         141.0102  143.0774  169.8997 C.ar    1  UNL1        0.0561
     24 C         140.6229  142.0395  168.8883 C.ar    1  UNL1        0.0414
     25 C         139.9527  143.9074  170.5652 C.2     1  UNL1        0.2428
     26 N         138.8839  143.2452  171.3832 N.am    1  UNL1       -0.3253
     27 O         139.9642  145.3996  170.4128 O.2     1  UNL1       -0.2704
     28 H         138.8763  142.2658  171.4832 H       1  UNL1        0.1453
     29 H         138.1898  143.7900  171.8200 H       1  UNL1        0.1453
@<TRIPOS>BOND
     1     9    10    1
     2    10    11    1
     3    10    12    1
     4    12    13   ar
     5    13    14   ar
     6    14    15   ar
     7    15    16   ar
     8    16    17   ar
     9    10     1    1
    10     1     2    1
    11     2     3    1
    12     3     4    1
    13     5     4    1
    14     5     6    1
    15     6     7    1
    16     7    18    1
    17    18    19    1
    18    19    20   ar
    19    20    21   ar
    20    21    22   ar
    21    22    23   ar
    22    23    25    1
    23    25    26   am
    24    25    27    2
    25    23    24   ar
    26     7     8    1
    27    17    12   ar
    28     5     1    1
    29    24    19   ar
    30     8     2    1
    31    26    28    1
    32    26    29    1
@<TRIPOS>MOLECULE
*****
 29 32 0 0 0
SMALL
GASTEIGER

@<TRIPOS>ATOM
      1 N         142.4036  140.6721  167.9322 N.3     1  UNL1       -0.2741
      2 C         142.6972  140.2158  169.3306 C.3     1  UNL1        0.0613
      3 C         143.3927  141.3351  170.0471 C.3     1  UNL1        0.0175
      4 C         143.5290  142.4832  169.0915 C.3     1  UNL1        0.0175
      5 C         142.9177  142.0735  167.7844 C.3     1  UNL1        0.0613
      6 C         142.2462  141.4005  166.6116 C.3     1  UNL1        0.0595
      7 C         141.7847  140.0043  166.9073 C.3     1  UNL1        0.1686
      8 C         142.0101  139.4119  168.2668 C.3     1  UNL1        0.0595
      9 C         140.3928  140.4228  167.3042 C.3     1  UNL1        0.0205
     10 C         141.7166  139.8682  166.8683 C.3     1  UNL1        0.0643
     11 C         143.0403  139.3136  166.4325 C.3     1  UNL1        0.0205
     12 C         141.0295  139.0643  165.8045 C.ar    1  UNL1       -0.0093
     13 C         139.5364  139.1171  165.6715 C.ar    1  UNL1       -0.0030
     14 C         138.8494  138.3131  164.6076 C.ar    1  UNL1       -0.0003
     15 C         139.6556  137.4565  163.6768 C.ar    1  UNL1       -0.0000
     16 C         141.1487  137.4037  163.8099 C.ar    1  UNL1       -0.0003
     17 C         141.8357  138.2076  164.8737 C.ar    1  UNL1       -0.0030
     18 O         141.0976  139.2004  165.8434 O.3     1  UNL1       -0.4791
     19 C         140.8409  139.8050  164.4948 C.ar    1  UNL1        0.1385
     20 C         141.8773  139.6986  163.4157 C.ar    1  UNL1        0.0369
     21 C         141.6207  140.3032  162.0672 C.ar    1  UNL1        0.0033
     22 C         140.3276  141.0142  161.7978 C.ar    1  UNL1        0.0047
     23 C         139.2913  141.1206  162.8769 C.ar    1  UNL1        0.0561
     24 C         139.5479  140.5159  164.2255 C.ar    1  UNL1        0.0414
     25 C         137.9983  141.8316  162.6075 C.2     1  UNL1        0.2428
     26 N         136.7422  141.3920  163.2998 N.am    1  UNL1       -0.3253
     27 O         137.9612  142.9822  161.6458 O.2     1  UNL1       -0.2704
     28 H         136.7665  140.6368  163.9310 H       1  UNL1        0.1453
     29 H         135.8936  141.8587  163.1230 H       1  UNL1        0.1453
@<TRIPOS>BOND
     1     9    10    1
     2    10    11    1
     3    10    12    1
     4    12    13   ar
     5    13    14   ar
     6    14    15   ar
     7    15    16   ar
     8    16    17   ar
     9    10     1    1
    10     1     2    1
    11     2     3    1
    12     3     4    1
    13     5     4    1
    14     5     6    1
    15     6     7    1
    16     7    18    1
    17    18    19    1
    18    19    20   ar
    19    20    21   ar
    20    21    22   ar
    21    22    23   ar
    22    23    25    1
    23    25    26   am
    24    25    27    2
    25    23    24   ar
    26     7     8    1
    27    17    12   ar
    28     5     1    1
    29    24    19   ar
    30     8     2    1
    31    26    28    1
    32    26    29    1
@<TRIPOS>MOLECULE
*****
 29 32 0 0 0
SMALL
GASTEIGER

@<TRIPOS>ATOM
      1 N         140.7095  141.3181  168.6855 N.3     1  UNL1       -0.2741
      2 C         140.8254  141.0152  170.1501 C.3     1  UNL1        0.0613
      3 C         140.7141  142.3088  170.9012 C.3     1  UNL1        0.0175
      4 C         140.5295  143.4112  169.9009 C.3     1  UNL1        0.0175
      5 C         140.5266  142.7989  168.5315 C.3     1  UNL1        0.0613
      6 C         140.5626  141.9226  167.3027 C.3     1  UNL1        0.0595
      7 C         140.7510  140.4669  167.6117 C.3     1  UNL1        0.1686
      8 C         140.8824  140.0132  169.0353 C.3     1  UNL1        0.0595
      9 C         142.2457  140.5344  167.4502 C.3     1  UNL1        0.0205
     10 C         140.7666  140.3161  167.5708 C.3     1  UNL1        0.0643
     11 C         139.2875  140.0978  167.6913 C.3     1  UNL1        0.0205
     12 C         140.8236  139.3141  166.4560 C.ar    1  UNL1       -0.0093
     13 C         139.5589  138.6972  165.9366 C.ar    1  UNL1       -0.0030
     14 C         139.6160  137.6952  164.8218 C.ar    1  UNL1       -0.0003
     15 C         140.9378  137.3100  164.2265 C.ar    1  UNL1       -0.0000
     16 C         142.2026  137.9269  164.7460 C.ar    1  UNL1       -0.0003
     17 C         142.1455  138.9289  165.8607 C.ar    1  UNL1       -0.0030
     18 O         140.8081  139.4649  166.4968 O.3     1  UNL1       -0.4791
     19 C         140.6716  139.9180  165.0734 C.ar    1  UNL1        0.1385
     20 C         141.8939  140.2666  164.2768 C.ar    1  UNL1        0.0369
     21 C         141.7574  140.7197  162.8535 C.ar    1  UNL1        0.0033
     22 C         140.3987  140.8243  162.2267 C.ar    1  UNL1        0.0047
     23 C         139.1764  140.4758  163.0233 C.ar    1  UNL1        0.0561
     24 C         139.3129  140.0226  164.4467 C.ar    1  UNL1        0.0414
     25 C         137.8177  140.5804  162.3964 C.2     1  UNL1        0.2428
     26 N         137.2907  139.4551  161.5562 N.am    1  UNL1       -0.3253
     27 O         136.9859  141.8103  162.6099 O.2     1  UNL1       -0.2704
     28 H         137.8366  138.6479  161.4161 H       1  UNL1        0.1453
     29 H         136.3989  139.5238  161.1448 H       1  UNL1        0.1453
@<TRIPOS>BOND
     1     9    10    1
     2    10    11    1
     3    10    12    1
     4    12    13   ar
     5    13    14   ar
     6    14    15   ar
     7    15    16   ar
     8    16    17   ar
     9    10     1    1
    10     1     2    1
    11     2     3    1
    12     3     4    1
    13     5     4    1
    14     5     6    1
    15     6     7    1
    16     7    18    1
    17    18    19    1
    18    19    20   ar
    19    20    21   ar
    20    21    22   ar
    21    22    23   ar
    22    23    25    1
    23    25    26   am
    24    25    27    2
    25    23    24   ar
    26     7     8    1
    27    17    12   ar
    28     5     1    1
    29    24    19   ar
    30     8     2    1
    31    26    28    1
    32    26    29    1
@<TRIPOS>MOLECULE
*****
 29 32 0 0 0
SMALL
GASTEIGER

@<TRIPOS>ATOM
      1 N         141.3390  140.4659  168.0312 N.3     1  UNL1       -0.2741
      2 C         141.6457  140.0334  169.4343 C.3     1  UNL1        0.0613
      3 C         140.3475  139.9092  170.1754 C.3     1  UNL1        0.0175
      4 C         139.2384  140.2650  169.2302 C.3     1  UNL1        0.0175
      5 C         139.8512  140.6091  167.9050 C.3     1  UNL1        0.0613
      6 C         140.7294  140.8958  166.7110 C.3     1  UNL1        0.0595
      7 C         142.1922  140.7108  166.9864 C.3     1  UNL1        0.1686
      8 C         142.6504  140.2795  168.3481 C.3     1  UNL1        0.0595
      9 C         142.2422  139.2755  166.5255 C.3     1  UNL1        0.0205
     10 C         142.3437  140.7121  166.9449 C.3     1  UNL1        0.0643
     11 C         142.4452  142.1487  167.3643 C.3     1  UNL1        0.0205
     12 C         143.3484  140.9582  165.8586 C.ar    1  UNL1       -0.0093
     13 C         143.8299  139.8189  165.0102 C.ar    1  UNL1       -0.0030
     14 C         144.8347  140.0651  163.9239 C.ar    1  UNL1       -0.0003
     15 C         145.3578  141.4507  163.6862 C.ar    1  UNL1       -0.0000
     16 C         144.8763  142.5901  164.5347 C.ar    1  UNL1       -0.0003
     17 C         143.8716  142.3438  165.6208 C.ar    1  UNL1       -0.0030
     18 O         143.1970  140.9569  165.9001 O.3     1  UNL1       -0.4791
     19 C         142.7362  141.3435  164.5259 C.ar    1  UNL1        0.1385
     20 C         142.4447  140.2825  163.5064 C.ar    1  UNL1        0.0369
     21 C         141.9840  140.6691  162.1324 C.ar    1  UNL1        0.0033
     22 C         141.8146  142.1167  161.7777 C.ar    1  UNL1        0.0047
     23 C         142.1061  143.1777  162.7972 C.ar    1  UNL1        0.0561
     24 C         142.5669  142.7911  164.1713 C.ar    1  UNL1        0.0414
     25 C         141.9367  144.6253  162.4425 C.2     1  UNL1        0.2428
     26 N         141.8994  145.0454  161.0030 N.am    1  UNL1       -0.3253
     27 O         141.8047  145.6528  163.5274 O.2     1  UNL1       -0.2704
     28 H         141.9861  144.3710  160.2910 H       1  UNL1        0.1453
     29 H         141.7883  145.9955  160.7702 H       1  UNL1        0.1453
@<TRIPOS>BOND
     1     9    10    1
     2    10    11    1
     3    10    12    1
     4    12    13   ar
     5    13    14   ar
     6    14    15   ar
     7    15    16   ar
     8    16    17   ar
     9    10     1    1
    10     1     2    1
    11     2     3    1
    12     3     4    1
    13     5     4    1
    14     5     6    1
    15     6     7    1
    16     7    18    1
    17    18    19    1
    18    19    20   ar
    19    20    21   ar
    20    21    22   ar
    21    22    23   ar
    22    23    25    1
    23    25    26   am
    24    25    27    2
    25    23    24   ar
    26     7     8    1
    27    17    12   ar
    28     5     1    1
    29    24    19   ar
    30     8     2    1
    31    26    28    1
    32    26    29    1
@<TRIPOS>MOLECULE
*****
 29 32 0 0 0
SMALL
GASTEIGER

@<TRIPOS>ATOM
      1 N         139.8986  138.8694  165.4580 N.3     1  UNL1       -0.2741
      2 C         139.2328  137.5352  165.2942 C.3     1  UNL1        0.0613
      3 C         138.0373  137.4994  166.1995 C.3     1  UNL1        0.0175
      4 C         137.9642  138.8115  166.9228 C.3     1  UNL1        0.0175
      5 C         139.1145  139.6582  166.4646 C.3     1  UNL1        0.0613
      6 C         140.3394  140.2716  165.8302 C.3     1  UNL1        0.0595
      7 C         141.0194  139.3673  164.8454 C.3     1  UNL1        0.1686
      8 C         140.4660  137.9991  164.5774 C.3     1  UNL1        0.0595
      9 C         140.2826  139.8681  163.6264 C.3     1  UNL1        0.0205
     10 C         141.1318  139.3332  164.7412 C.3     1  UNL1        0.0643
     11 C         141.9810  138.7983  165.8560 C.3     1  UNL1        0.0205
     12 C         142.3651  139.7971  164.0243 C.ar    1  UNL1       -0.0093
     13 C         143.7064  139.6768  164.6847 C.ar    1  UNL1       -0.0030
     14 C         144.9397  140.1407  163.9678 C.ar    1  UNL1       -0.0003
     15 C         144.8315  140.7249  162.5905 C.ar    1  UNL1       -0.0000
     16 C         143.4901  140.8452  161.9300 C.ar    1  UNL1       -0.0003
     17 C         142.2570  140.3813  162.6469 C.ar    1  UNL1       -0.0030
     18 O         142.2527  139.8312  164.1285 O.3     1  UNL1       -0.4791
     19 C         142.7032  141.2562  164.2565 C.ar    1  UNL1        0.1385
     20 C         143.6853  141.6394  165.3236 C.ar    1  UNL1        0.0369
     21 C         144.1358  143.0643  165.4516 C.ar    1  UNL1        0.0033
     22 C         143.6043  144.1062  164.5125 C.ar    1  UNL1        0.0047
     23 C         142.6222  143.7231  163.4454 C.ar    1  UNL1        0.0561
     24 C         142.1717  142.2980  163.3174 C.ar    1  UNL1        0.0414
     25 C         142.0906  144.7650  162.5063 C.2     1  UNL1        0.2428
     26 N         141.3091  145.9282  163.0412 N.am    1  UNL1       -0.3253
     27 O         142.3406  144.6436  161.0322 O.2     1  UNL1       -0.2704
     28 H         141.1450  146.0078  164.0087 H       1  UNL1        0.1453
     29 H         140.9603  146.6120  162.4248 H       1  UNL1        0.1453
@<TRIPOS>BOND
     1     9    10    1
     2    10    11    1
     3    10    12    1
     4    12    13   ar
     5    13    14   ar
     6    14    15   ar
     7    15    16   ar
     8    16    17   ar
     9    10     1    1
    10     1     2    1
    11     2     3    1
    12     3     4    1
    13     5     4    1
    14     5     6    1
    15     6     7    1
    16     7    18    1
    17    18    19    1
    18    19    20   ar
    19    20    21   ar
    20    21    22   ar
    21    22    23   ar
    22    23    25    1
    23    25    26   am
    24    25    27    2
    25    23    24   ar
    26     7     8    1
    27    17    12   ar
    28     5     1    1
    29    24    19   ar
    30     8     2    1
    31    26    28    1
    32    26    29    1
@<TRIPOS>MOLECULE
*****
 29 32 0 0 0
SMALL
GASTEIGER

@<TRIPOS>ATOM
      1 N         140.3909  141.1580  168.1782 N.3     1  UNL1       -0.2741
      2 C         139.5404  140.0900  168.7995 C.3     1  UNL1        0.0613
      3 C         138.9982  140.6228  170.0926 C.3     1  UNL1        0.0175
      4 C         139.5137  142.0202  170.2705 C.3     1  UNL1        0.0175
      5 C         140.3744  142.3509  169.0874 C.3     1  UNL1        0.0613
      6 C         141.1707  142.4040  167.8058 C.3     1  UNL1        0.0595
      7 C         141.0930  141.1406  167.0008 C.3     1  UNL1        0.1686
      8 C         140.2779  139.9836  167.4977 C.3     1  UNL1        0.0595
      9 C         139.9362  141.6077  166.1556 C.3     1  UNL1        0.0205
     10 C         141.1284  141.0516  166.8764 C.3     1  UNL1        0.0643
     11 C         142.3205  140.4956  167.5972 C.3     1  UNL1        0.0205
     12 C         141.8659  140.9453  165.5745 C.ar    1  UNL1       -0.0093
     13 C         143.3298  140.6188  165.5664 C.ar    1  UNL1       -0.0030
     14 C         144.0673  140.5125  164.2645 C.ar    1  UNL1       -0.0003
     15 C         143.3408  140.7327  162.9708 C.ar    1  UNL1       -0.0000
     16 C         141.8767  141.0592  162.9789 C.ar    1  UNL1       -0.0003
     17 C         141.1393  141.1655  164.2808 C.ar    1  UNL1       -0.0030
     18 O         141.8306  141.0344  165.6989 O.3     1  UNL1       -0.4791
     19 C         142.4882  142.2463  165.1084 C.ar    1  UNL1        0.1385
     20 C         143.8584  142.6529  165.5637 C.ar    1  UNL1        0.0369
     21 C         144.5160  143.8648  164.9733 C.ar    1  UNL1        0.0033
     22 C         143.8035  144.6702  163.9275 C.ar    1  UNL1        0.0047
     23 C         142.4333  144.2636  163.4721 C.ar    1  UNL1        0.0561
     24 C         141.7757  143.0516  164.0627 C.ar    1  UNL1        0.0414
     25 C         141.7208  145.0689  162.4263 C.2     1  UNL1        0.2428
     26 N         140.7273  146.1162  162.8339 N.am    1  UNL1       -0.3253
     27 O         142.0018  144.8270  160.9728 O.2     1  UNL1       -0.2704
     28 H         140.5428  146.2750  163.7879 H       1  UNL1        0.1453
     29 H         140.2596  146.6447  162.1475 H       1  UNL1        0.1453
@<TRIPOS>BOND
     1     9    10    1
     2    10    11    1
     3    10    12    1
     4    12    13   ar
     5    13    14   ar
     6    14    15   ar
     7    15    16   ar
     8    16    17   ar
     9    10     1    1
    10     1     2    1
    11     2     3    1
    12     3     4    1
    13     5     4    1
    14     5     6    1
    15     6     7    1
    16     7    18    1
    17    18    19    1
    18    19    20   ar
    19    20    21   ar
    20    21    22   ar
    21    22    23   ar
    22    23    25    1
    23    25    26   am
    24    25    27    2
    25    23    24   ar
    26     7     8    1
    27    17    12   ar
    28     5     1    1
    29    24    19   ar
    30     8     2    1
    31    26    28    1
    32    26    29    1
@<TRIPOS>MOLECULE
*****
 29 32 0 0 0
SMALL
GASTEIGER

@<TRIPOS>ATOM
      1 N         140.9038  140.2572  167.9905 N.3     1  UNL1       -0.2741
      2 C         140.4399  140.0426  169.4007 C.3     1  UNL1        0.0613
      3 C         141.5525  139.3816  170.1592 C.3     1  UNL1        0.0175
      4 C         142.7040  139.1878  169.2177 C.3     1  UNL1        0.0175
      5 C         142.3031  139.7289  167.8774 C.3     1  UNL1        0.0613
      6 C         141.6387  140.3388  166.6667 C.3     1  UNL1        0.0595
      7 C         140.2436  140.8227  166.9304 C.3     1  UNL1        0.1686
      8 C         139.6442  140.6746  168.2974 C.3     1  UNL1        0.0595
      9 C         139.5715  139.5423  166.5026 C.3     1  UNL1        0.0205
     10 C         140.1081  140.8893  166.8872 C.3     1  UNL1        0.0643
     11 C         140.6446  142.2362  167.2717 C.3     1  UNL1        0.0205
     12 C         139.3124  141.5213  165.7838 C.ar    1  UNL1       -0.0093
     13 C         138.5105  140.6631  164.8510 C.ar    1  UNL1       -0.0030
     14 C         137.7147  141.2952  163.7476 C.ar    1  UNL1       -0.0003
     15 C         137.7209  142.7854  163.5771 C.ar    1  UNL1       -0.0000
     16 C         138.5229  143.6437  164.5101 C.ar    1  UNL1       -0.0003
     17 C         139.3186  143.0116  165.6133 C.ar    1  UNL1       -0.0030
     18 O         139.4479  141.4547  165.8269 O.3     1  UNL1       -0.4791
     19 C         140.0831  141.7015  164.4906 C.ar    1  UNL1        0.1385
     20 C         140.0371  140.6407  163.4310 C.ar    1  UNL1        0.0369
     21 C         140.6722  140.8874  162.0948 C.ar    1  UNL1        0.0033
     22 C         141.3534  142.1949  161.8181 C.ar    1  UNL1        0.0047
     23 C         141.3994  143.2556  162.8777 C.ar    1  UNL1        0.0561
     24 C         140.7642  143.0089  164.2140 C.ar    1  UNL1        0.0414
     25 C         142.0806  144.5630  162.6010 C.2     1  UNL1        0.2428
     26 N         141.4416  145.8485  163.0359 N.am    1  UNL1       -0.3253
     27 O         143.4009  144.5850  161.8893 O.2     1  UNL1       -0.2704
     28 H         140.5751  145.8341  163.5031 H       1  UNL1        0.1453
     29 H         141.8887  146.7066  162.8543 H       1  UNL1        0.1453
@<TRIPOS>BOND
     1     9    10    1
     2    10    11    1
     3    10    12    1
     4    12    13   ar
     5    13    14   ar
     6    14    15   ar
     7    15    16   ar
     8    16    17   ar
     9    10     1    1
    10     1     2    1
    11     2     3    1
    12     3     4    1
    13     5     4    1
    14     5     6    1
    15     6     7    1
    16     7    18    1
    17    18    19    1
    18    19    20   ar
    19    20    21   ar
    20    21    22   ar
    21    22    23   ar
    22    23    25    1
    23    25    26   am
    24    25    27    2
    25    23    24   ar
    26     7     8    1
    27    17    12   ar
    28     5     1    1
    29    24    19   ar
    30     8     2    1
    31    26    28    1
    32    26    29    1
@<TRIPOS>MOLECULE
*****
 29 32 0 0 0
SMALL
GASTEIGER

@<TRIPOS>ATOM
      1 N         140.5231  143.3315  163.4907 N.3     1  UNL1       -0.2741
      2 C         140.0808  143.8459  162.1529 C.3     1  UNL1        0.0613
      3 C         140.6747  145.2099  161.9613 C.3     1  UNL1        0.0175
      4 C         141.4841  145.5385  163.1807 C.3     1  UNL1        0.0175
      5 C         141.3904  144.3776  164.1259 C.3     1  UNL1        0.0613
      6 C         141.1212  143.0877  164.8626 C.3     1  UNL1        0.0595
      7 C         140.2395  142.1394  164.1054 C.3     1  UNL1        0.1686
      8 C         139.7193  142.5185  162.7506 C.3     1  UNL1        0.0595
      9 C         141.3816  141.3918  163.4666 C.3     1  UNL1        0.0205
     10 C         140.1616  142.0041  164.0884 C.3     1  UNL1        0.0643
     11 C         138.9415  142.6163  164.7102 C.3     1  UNL1        0.0205
     12 C         139.8000  140.6766  164.6861 C.ar    1  UNL1       -0.0093
     13 C         138.5595  140.5418  165.5184 C.ar    1  UNL1       -0.0030
     14 C         138.1980  139.2142  166.1160 C.ar    1  UNL1       -0.0003
     15 C         139.0771  138.0217  165.8813 C.ar    1  UNL1       -0.0000
     16 C         140.3176  138.1566  165.0490 C.ar    1  UNL1       -0.0003
     17 C         140.6791  139.4840  164.4514 C.ar    1  UNL1       -0.0030
     18 O         139.8779  140.8119  164.7032 O.3     1  UNL1       -0.4791
     19 C         140.3819  140.4410  166.0664 C.ar    1  UNL1        0.1385
     20 C         141.7126  139.7649  166.2158 C.ar    1  UNL1        0.0369
     21 C         142.2166  139.3940  167.5789 C.ar    1  UNL1        0.0033
     22 C         141.3900  139.6992  168.7928 C.ar    1  UNL1        0.0047
     23 C         140.0593  140.3752  168.6435 C.ar    1  UNL1        0.0561
     24 C         139.5553  140.7461  167.2802 C.ar    1  UNL1        0.0414
     25 C         139.2327  140.6804  169.8574 C.2     1  UNL1        0.2428
     26 N         138.1066  139.7690  170.2465 N.am    1  UNL1       -0.3253
     27 O         139.5321  141.8970  170.6823 O.2     1  UNL1       -0.2704
     28 H         137.9101  138.9705  169.7051 H       1  UNL1        0.1453
     29 H         137.5641  139.9693  171.0432 H       1  UNL1        0.1453
@<TRIPOS>BOND
     1     9    10    1
     2    10    11    1
     3    10    12    1
     4    12    13   ar
     5    13    14   ar
     6    14    15   ar
     7    15    16   ar
     8    16    17   ar
     9    10     1    1
    10     1     2    1
    11     2     3    1
    12     3     4    1
    13     5     4    1
    14     5     6    1
    15     6     7    1
    16     7    18    1
    17    18    19    1
    18    19    20   ar
    19    20    21   ar
    20    21    22   ar
    21    22    23   ar
    22    23    25    1
    23    25    26   am
    24    25    27    2
    25    23    24   ar
    26     7     8    1
    27    17    12   ar
    28     5     1    1
    29    24    19   ar
    30     8     2    1
    31    26    28    1
    32    26    29    1
