@<TRIPOS>MOLECULE
*****
 38 42 0 0 0
SMALL
GASTEIGER

@<TRIPOS>ATOM
      1 C         141.1647  139.0616  157.6645 C.ar    1  UNL1        0.0104
      2 C         141.5101  137.6252  157.4048 C.ar    1  UNL1        0.0078
      3 C         142.8125  137.2738  156.7488 C.ar    1  UNL1        0.1095
      4 C         143.7694  138.3587  156.3524 C.ar    1  UNL1        0.2691
      5 O         145.0717  138.0073  155.6964 O.2     1  UNL1       -0.2665
      6 N         143.4240  139.7952  156.6121 N.ar    1  UNL1       -0.2733
      7 C         144.3809  140.8801  156.2157 C.ar    1  UNL1        0.0829
      8 C         144.0355  142.3165  156.4754 C.ar    1  UNL1        0.0191
      9 C         142.7331  142.6679  157.1314 C.ar    1  UNL1        0.0030
     10 C         141.7762  141.5830  157.5278 C.ar    1  UNL1        0.0174
     11 C         142.1216  140.1466  157.2681 C.ar    1  UNL1        0.0642
     12 C         143.1579  135.8373  156.4891 C.2     1  UNL1        0.2505
     13 O         143.4487  135.3767  155.0915 O.2     1  UNL1       -0.2700
     14 N         143.2125  134.8616  157.6270 N.am    1  UNL1       -0.3000
     15 H         143.0217  135.1639  158.5443 H       1  UNL1        0.1498
     16 C         143.5579  133.4252  157.3673 C.3     1  UNL1        0.0986
     17 C         144.8081  132.8370  157.9514 C.3     1  UNL1        0.0220
     18 C         145.1535  131.4006  157.6917 C.3     1  UNL1        0.0019
     19 C         144.2488  130.5524  156.8480 C.3     1  UNL1        0.0026
     20 C         142.9986  131.1405  156.2639 C.3     1  UNL1        0.0309
     21 C         142.6532  132.5770  156.5236 C.3     1  UNL1        0.1283
     22 O         141.4030  133.1651  155.9395 O.3     1  UNL1       -0.3828
     23 H         140.9366  132.4877  155.4253 H       1  UNL1        0.2104
     24 C         139.8623  139.4130  158.3205 C.3     1  UNL1        0.1007
     25 N         139.5957  139.6555  162.8060 N.pl3   1  UNL1       -0.3046
     26 C         139.1216  138.4245  162.0920 C.3     1  UNL1        0.1081
     27 C         139.2105  138.3437  160.5968 C.3     1  UNL1        0.0941
     28 N         139.7735  139.4938  159.8156 N.3     1  UNL1       -0.2659
     29 C         140.2476  140.7248  160.5297 C.3     1  UNL1        0.0941
     30 C         140.1587  140.8057  162.0249 C.3     1  UNL1        0.1081
     31 C         139.3291  139.8980  167.2916 C.ar    1  UNL1        0.0685
     32 C         140.3445  140.7205  166.5551 C.ar    1  UNL1        0.0115
     33 C         140.4334  140.6397  165.0598 C.ar    1  UNL1        0.0152
     34 C         139.5069  139.7364  164.3012 C.ar    1  UNL1        0.0480
     35 C         138.4914  138.9138  165.0378 C.ar    1  UNL1        0.0152
     36 C         138.4026  138.9947  166.5329 C.ar    1  UNL1        0.0115
     37 N         139.1514  140.0598  170.2819 N.1     1  UNL1       -0.1908
     38 C         139.2402  139.9789  168.7867 C.1     1  UNL1        0.1004
@<TRIPOS>BOND
     1    37    38    3
     2    38    31    1
     3    31    32   ar
     4    32    33   ar
     5    33    34   ar
     6    34    25    1
     7    25    26    1
     8    26    27    1
     9    27    28    1
    10    28    24    1
    11    24     1    1
    12     1     2   ar
    13     2     3   ar
    14     3    12    1
    15    12    13    2
    16    12    14   am
    17    16    14    1
    18    16    17    1
    19    17    18    1
    20    18    19    1
    21    19    20    1
    22    20    21    1
    23    21    22    1
    24     3     4   ar
    25     4     5    2
    26     4     6   ar
    27     6     7   ar
    28     7     8   ar
    29     8     9   ar
    30     9    10   ar
    31    10    11   ar
    32    28    29    1
    33    29    30    1
    34    34    35   ar
    35    35    36   ar
    36    36    31   ar
    37    30    25    1
    38    11     1   ar
    39    21    16    1
    40    11     6   ar
    41    14    15    1
    42    22    23    1
@<TRIPOS>MOLECULE
*****
 38 42 0 0 0
SMALL
GASTEIGER

@<TRIPOS>ATOM
      1 C         140.5345  140.0076  159.1833 C.ar    1  UNL1        0.0104
      2 C         140.4859  138.7135  158.4264 C.ar    1  UNL1        0.0078
      3 C         141.6645  138.2797  157.6063 C.ar    1  UNL1        0.1095
      4 C         142.8917  139.1399  157.5430 C.ar    1  UNL1        0.2691
      5 O         144.0703  138.7061  156.7229 O.2     1  UNL1       -0.2665
      6 N         142.9403  140.4341  158.2999 N.ar    1  UNL1       -0.2733
      7 C         144.1674  141.2943  158.2367 C.ar    1  UNL1        0.0829
      8 C         144.2160  142.5884  158.9936 C.ar    1  UNL1        0.0191
      9 C         143.0374  143.0223  159.8137 C.ar    1  UNL1        0.0030
     10 C         141.8102  142.1620  159.8770 C.ar    1  UNL1        0.0174
     11 C         141.7617  140.8679  159.1201 C.ar    1  UNL1        0.0642
     12 C         141.6160  136.9855  156.8493 C.2     1  UNL1        0.2505
     13 O         140.3736  136.5996  156.1026 O.2     1  UNL1       -0.2700
     14 N         142.8097  136.0774  156.8391 N.am    1  UNL1       -0.3000
     15 H         143.6251  136.3307  157.3292 H       1  UNL1        0.1498
     16 C         142.7611  134.7833  156.0822 C.3     1  UNL1        0.0986
     17 C         142.5262  134.7893  154.6007 C.3     1  UNL1        0.0220
     18 C         142.4775  133.4952  153.8438 C.3     1  UNL1        0.0019
     19 C         142.6638  132.1951  154.5684 C.3     1  UNL1        0.0026
     20 C         142.8987  132.1890  156.0498 C.3     1  UNL1        0.0309
     21 C         142.9473  133.4832  156.8068 C.3     1  UNL1        0.1283
     22 O         143.1822  133.4771  158.2882 O.3     1  UNL1       -0.3828
     23 H         143.2813  132.5626  158.5962 H       1  UNL1        0.2104
     24 C         139.3559  140.4415  160.0035 C.3     1  UNL1        0.1007
     25 N         139.7962  141.0231  164.4439 N.pl3   1  UNL1       -0.3046
     26 C         138.9763  141.9873  163.6389 C.3     1  UNL1        0.1081
     27 C         138.8295  141.7934  162.1588 C.3     1  UNL1        0.0941
     28 N         139.5027  140.6353  161.4836 N.3     1  UNL1       -0.2659
     29 C         140.3226  139.6711  162.2886 C.3     1  UNL1        0.0941
     30 C         140.4694  139.8650  163.7688 C.3     1  UNL1        0.1081
     31 C         140.2367  141.6046  168.8844 C.ar    1  UNL1        0.0685
     32 C         140.6523  142.6937  167.9405 C.ar    1  UNL1        0.0115
     33 C         140.5055  142.4999  166.4603 C.ar    1  UNL1        0.0152
     34 C         139.9431  141.2169  165.9240 C.ar    1  UNL1        0.0480
     35 C         139.5274  140.1277  166.8680 C.ar    1  UNL1        0.0152
     36 C         139.6742  140.3216  168.3481 C.ar    1  UNL1        0.0115
     37 N         140.5303  141.9923  171.8447 N.1     1  UNL1       -0.1908
     38 C         140.3835  141.7984  170.3645 C.1     1  UNL1        0.1004
@<TRIPOS>BOND
     1    37    38    3
     2    38    31    1
     3    31    32   ar
     4    32    33   ar
     5    33    34   ar
     6    34    25    1
     7    25    26    1
     8    26    27    1
     9    27    28    1
    10    28    24    1
    11    24     1    1
    12     1     2   ar
    13     2     3   ar
    14     3    12    1
    15    12    13    2
    16    12    14   am
    17    16    14    1
    18    16    17    1
    19    17    18    1
    20    18    19    1
    21    19    20    1
    22    20    21    1
    23    21    22    1
    24     3     4   ar
    25     4     5    2
    26     4     6   ar
    27     6     7   ar
    28     7     8   ar
    29     8     9   ar
    30     9    10   ar
    31    10    11   ar
    32    28    29    1
    33    29    30    1
    34    34    35   ar
    35    35    36   ar
    36    36    31   ar
    37    30    25    1
    38    11     1   ar
    39    21    16    1
    40    11     6   ar
    41    14    15    1
    42    22    23    1
@<TRIPOS>MOLECULE
*****
 38 42 0 0 0
SMALL
GASTEIGER

@<TRIPOS>ATOM
      1 C         143.8126  140.7307  156.2436 C.ar    1  UNL1        0.0104
      2 C         143.4628  141.1094  157.6522 C.ar    1  UNL1        0.0078
      3 C         144.4004  141.9622  158.4544 C.ar    1  UNL1        0.1095
      4 C         145.6878  142.4363  157.8480 C.ar    1  UNL1        0.2691
      5 O         146.6255  143.2892  158.6502 O.2     1  UNL1       -0.2665
      6 N         146.0377  142.0576  156.4394 N.ar    1  UNL1       -0.2733
      7 C         147.3251  142.5317  155.8330 C.ar    1  UNL1        0.0829
      8 C         147.6750  142.1529  154.4244 C.ar    1  UNL1        0.0191
      9 C         146.7374  141.3001  153.6222 C.ar    1  UNL1        0.0030
     10 C         145.4499  140.8260  154.2286 C.ar    1  UNL1        0.0174
     11 C         145.1001  141.2048  155.6371 C.ar    1  UNL1        0.0642
     12 C         144.0505  142.3410  159.8630 C.2     1  UNL1        0.2505
     13 O         142.6125  142.4715  160.2694 O.2     1  UNL1       -0.2700
     14 N         145.1386  142.5892  160.8652 N.am    1  UNL1       -0.3000
     15 H         146.0824  142.5035  160.5985 H       1  UNL1        0.1498
     16 C         144.7887  142.9679  162.2738 C.3     1  UNL1        0.0986
     17 C         144.1952  144.3148  162.5629 C.3     1  UNL1        0.0220
     18 C         143.8453  144.6935  163.9714 C.3     1  UNL1        0.0019
     19 C         144.0889  143.7254  165.0910 C.3     1  UNL1        0.0026
     20 C         144.6824  142.3785  164.8019 C.3     1  UNL1        0.0309
     21 C         145.0323  141.9997  163.3933 C.3     1  UNL1        0.1283
     22 O         145.6258  140.6528  163.1042 O.3     1  UNL1       -0.3828
     23 H         145.7163  140.1550  163.9318 H       1  UNL1        0.2104
     24 C         142.8750  139.8778  155.4414 C.3     1  UNL1        0.1007
     25 N         142.8948  135.4082  155.9628 N.pl3   1  UNL1       -0.3046
     26 C         144.1469  136.1200  155.5439 C.3     1  UNL1        0.1081
     27 C         144.1403  137.6098  155.3701 C.3     1  UNL1        0.0941
     28 N         142.8816  138.3880  155.6152 N.3     1  UNL1       -0.2659
     29 C         141.6294  137.6762  156.0341 C.3     1  UNL1        0.0941
     30 C         141.6360  136.1863  156.2079 C.3     1  UNL1        0.1081
     31 C         142.9144  130.9386  156.4842 C.ar    1  UNL1        0.0685
     32 C         143.9669  131.7757  157.1484 C.ar    1  UNL1        0.0115
     33 C         143.9604  133.2657  156.9746 C.ar    1  UNL1        0.0152
     34 C         142.9013  133.9183  156.1366 C.ar    1  UNL1        0.0480
     35 C         141.8487  133.0811  155.4723 C.ar    1  UNL1        0.0152
     36 C         141.8553  131.5912  155.6462 C.ar    1  UNL1        0.0115
     37 N         142.9275  127.9588  156.8319 N.1     1  UNL1       -0.1908
     38 C         142.9210  129.4487  156.6580 C.1     1  UNL1        0.1004
@<TRIPOS>BOND
     1    37    38    3
     2    38    31    1
     3    31    32   ar
     4    32    33   ar
     5    33    34   ar
     6    34    25    1
     7    25    26    1
     8    26    27    1
     9    27    28    1
    10    28    24    1
    11    24     1    1
    12     1     2   ar
    13     2     3   ar
    14     3    12    1
    15    12    13    2
    16    12    14   am
    17    16    14    1
    18    16    17    1
    19    17    18    1
    20    18    19    1
    21    19    20    1
    22    20    21    1
    23    21    22    1
    24     3     4   ar
    25     4     5    2
    26     4     6   ar
    27     6     7   ar
    28     7     8   ar
    29     8     9   ar
    30     9    10   ar
    31    10    11   ar
    32    28    29    1
    33    29    30    1
    34    34    35   ar
    35    35    36   ar
    36    36    31   ar
    37    30    25    1
    38    11     1   ar
    39    21    16    1
    40    11     6   ar
    41    14    15    1
    42    22    23    1
@<TRIPOS>MOLECULE
*****
 38 42 0 0 0
SMALL
GASTEIGER

@<TRIPOS>ATOM
      1 C         139.8263  142.0641  159.0968 C.ar    1  UNL1        0.0104
      2 C         140.1926  140.6448  158.7783 C.ar    1  UNL1        0.0078
      3 C         141.2896  140.3555  157.7971 C.ar    1  UNL1        0.1095
      4 C         142.0203  141.4854  157.1343 C.ar    1  UNL1        0.2691
      5 O         143.1173  141.1960  156.1530 O.2     1  UNL1       -0.2665
      6 N         141.6540  142.9047  157.4527 N.ar    1  UNL1       -0.2733
      7 C         142.3846  144.0346  156.7899 C.ar    1  UNL1        0.0829
      8 C         142.0183  145.4539  157.1083 C.ar    1  UNL1        0.0191
      9 C         140.9213  145.7432  158.0896 C.ar    1  UNL1        0.0030
     10 C         140.1906  144.6133  158.7524 C.ar    1  UNL1        0.0174
     11 C         140.5570  143.1941  158.4339 C.ar    1  UNL1        0.0642
     12 C         141.6559  138.9361  157.4787 C.2     1  UNL1        0.2505
     13 O         141.9140  137.9610  158.5889 O.2     1  UNL1       -0.2700
     14 N         141.7642  138.4919  156.0501 N.am    1  UNL1       -0.3000
     15 H         141.5948  139.1319  155.3214 H       1  UNL1        0.1498
     16 C         142.1304  137.0726  155.7317 C.3     1  UNL1        0.0986
     17 C         141.0543  136.0457  155.5378 C.3     1  UNL1        0.0220
     18 C         141.4206  134.6264  155.2194 C.3     1  UNL1        0.0019
     19 C         142.8630  134.2339  155.0950 C.3     1  UNL1        0.0026
     20 C         143.9391  135.2607  155.2888 C.3     1  UNL1        0.0309
     21 C         143.5728  136.6801  155.6072 C.3     1  UNL1        0.1283
     22 O         144.6489  137.7069  155.8011 O.3     1  UNL1       -0.3828
     23 H         145.5175  137.2905  155.6870 H       1  UNL1        0.2104
     24 C         138.7293  142.3534  160.0780 C.3     1  UNL1        0.1007
     25 N         139.4755  141.8826  164.4907 N.pl3   1  UNL1       -0.3046
     26 C         138.2296  141.3167  163.8761 C.3     1  UNL1        0.1081
     27 C         137.9809  141.4736  162.4053 C.3     1  UNL1        0.0941
     28 N         138.9780  142.1965  161.5489 N.3     1  UNL1       -0.2659
     29 C         140.2239  142.7623  162.1634 C.3     1  UNL1        0.0941
     30 C         140.4726  142.6054  163.6344 C.3     1  UNL1        0.1081
     31 C         140.2217  141.4117  168.9033 C.ar    1  UNL1        0.0685
     32 C         140.5629  142.7018  168.2185 C.ar    1  UNL1        0.0115
     33 C         140.3142  142.8588  166.7475 C.ar    1  UNL1        0.0152
     34 C         139.7242  141.7256  165.9615 C.ar    1  UNL1        0.0480
     35 C         139.3829  140.4354  166.6465 C.ar    1  UNL1        0.0152
     36 C         139.6317  140.2785  168.1173 C.ar    1  UNL1        0.0115
     37 N         140.7192  141.0978  171.8451 N.1     1  UNL1       -0.1908
     38 C         140.4704  141.2547  170.3742 C.1     1  UNL1        0.1004
@<TRIPOS>BOND
     1    37    38    3
     2    38    31    1
     3    31    32   ar
     4    32    33   ar
     5    33    34   ar
     6    34    25    1
     7    25    26    1
     8    26    27    1
     9    27    28    1
    10    28    24    1
    11    24     1    1
    12     1     2   ar
    13     2     3   ar
    14     3    12    1
    15    12    13    2
    16    12    14   am
    17    16    14    1
    18    16    17    1
    19    17    18    1
    20    18    19    1
    21    19    20    1
    22    20    21    1
    23    21    22    1
    24     3     4   ar
    25     4     5    2
    26     4     6   ar
    27     6     7   ar
    28     7     8   ar
    29     8     9   ar
    30     9    10   ar
    31    10    11   ar
    32    28    29    1
    33    29    30    1
    34    34    35   ar
    35    35    36   ar
    36    36    31   ar
    37    30    25    1
    38    11     1   ar
    39    21    16    1
    40    11     6   ar
    41    14    15    1
    42    22    23    1
@<TRIPOS>MOLECULE
*****
 38 42 0 0 0
SMALL
GASTEIGER

@<TRIPOS>ATOM
      1 C         141.7022  139.2892  158.0205 C.ar    1  UNL1        0.0104
      2 C         142.3777  138.0134  157.6130 C.ar    1  UNL1        0.0078
      3 C         141.7501  137.1307  156.5753 C.ar    1  UNL1        0.1095
      4 C         140.4469  137.5238  155.9450 C.ar    1  UNL1        0.2691
      5 O         139.8193  136.6411  154.9072 O.2     1  UNL1       -0.2665
      6 N         139.7714  138.7996  156.3524 N.ar    1  UNL1       -0.2733
      7 C         138.4683  139.1927  155.7221 C.ar    1  UNL1        0.0829
      8 C         137.7928  140.4685  156.1296 C.ar    1  UNL1        0.0191
      9 C         138.4204  141.3512  157.1673 C.ar    1  UNL1        0.0030
     10 C         139.7235  140.9581  157.7976 C.ar    1  UNL1        0.0174
     11 C         140.3990  139.6823  157.3902 C.ar    1  UNL1        0.0642
     12 C         142.4256  135.8549  156.1679 C.2     1  UNL1        0.2505
     13 O         143.9202  135.8014  156.0523 O.2     1  UNL1       -0.2700
     14 N         141.6066  134.6326  155.8761 N.am    1  UNL1       -0.3000
     15 H         140.6257  134.6677  155.9519 H       1  UNL1        0.1498
     16 C         142.2822  133.3569  155.4687 C.3     1  UNL1        0.0986
     17 C         142.2771  132.9317  154.0301 C.3     1  UNL1        0.0220
     18 C         142.9526  131.6559  153.6227 C.3     1  UNL1        0.0019
     19 C         143.6333  130.8053  154.6538 C.3     1  UNL1        0.0026
     20 C         143.6385  131.2304  156.0922 C.3     1  UNL1        0.0309
     21 C         142.9629  132.5062  156.4997 C.3     1  UNL1        0.1283
     22 O         142.9680  132.9313  157.9382 O.3     1  UNL1       -0.3828
     23 H         143.4465  132.2745  158.4677 H       1  UNL1        0.2104
     24 C         142.3298  140.1719  159.0582 C.3     1  UNL1        0.1007
     25 N         140.8440  140.0599  163.3044 N.pl3   1  UNL1       -0.3046
     26 C         140.7865  138.8236  162.4568 C.3     1  UNL1        0.1081
     27 C         141.2818  138.8610  161.0414 C.3     1  UNL1        0.0941
     28 N         141.8346  140.1346  160.4736 N.3     1  UNL1       -0.2659
     29 C         141.8921  141.3708  161.3212 C.3     1  UNL1        0.0941
     30 C         141.3968  141.3335  162.7366 C.3     1  UNL1        0.1081
     31 C         139.3582  139.9479  167.5505 C.ar    1  UNL1        0.0685
     32 C         140.6180  140.6902  167.2161 C.ar    1  UNL1        0.0115
     33 C         141.1133  140.7275  165.8007 C.ar    1  UNL1        0.0152
     34 C         140.3488  140.0226  164.7197 C.ar    1  UNL1        0.0480
     35 C         139.0889  139.2803  165.0542 C.ar    1  UNL1        0.0152
     36 C         138.5936  139.2430  166.4695 C.ar    1  UNL1        0.0115
     37 N         138.3677  139.8733  170.3813 N.1     1  UNL1       -0.1908
     38 C         138.8629  139.9106  168.9659 C.1     1  UNL1        0.1004
@<TRIPOS>BOND
     1    37    38    3
     2    38    31    1
     3    31    32   ar
     4    32    33   ar
     5    33    34   ar
     6    34    25    1
     7    25    26    1
     8    26    27    1
     9    27    28    1
    10    28    24    1
    11    24     1    1
    12     1     2   ar
    13     2     3   ar
    14     3    12    1
    15    12    13    2
    16    12    14   am
    17    16    14    1
    18    16    17    1
    19    17    18    1
    20    18    19    1
    21    19    20    1
    22    20    21    1
    23    21    22    1
    24     3     4   ar
    25     4     5    2
    26     4     6   ar
    27     6     7   ar
    28     7     8   ar
    29     8     9   ar
    30     9    10   ar
    31    10    11   ar
    32    28    29    1
    33    29    30    1
    34    34    35   ar
    35    35    36   ar
    36    36    31   ar
    37    30    25    1
    38    11     1   ar
    39    21    16    1
    40    11     6   ar
    41    14    15    1
    42    22    23    1
@<TRIPOS>MOLECULE
*****
 38 42 0 0 0
SMALL
GASTEIGER

@<TRIPOS>ATOM
      1 C         141.9496  140.4087  157.4336 C.ar    1  UNL1        0.0104
      2 C         141.1725  140.7534  158.6694 C.ar    1  UNL1        0.0078
      3 C         141.7501  141.7009  159.6787 C.ar    1  UNL1        0.1095
      4 C         143.1048  142.3038  159.4521 C.ar    1  UNL1        0.2691
      5 O         143.6824  143.2513  160.4613 O.2     1  UNL1       -0.2665
      6 N         143.8819  141.9591  158.2162 N.ar    1  UNL1       -0.2733
      7 C         145.2366  142.5620  157.9896 C.ar    1  UNL1        0.0829
      8 C         146.0137  142.2173  156.7538 C.ar    1  UNL1        0.0191
      9 C         145.4361  141.2697  155.7446 C.ar    1  UNL1        0.0030
     10 C         144.0814  140.6669  155.9712 C.ar    1  UNL1        0.0174
     11 C         143.3043  141.0116  157.2070 C.ar    1  UNL1        0.0642
     12 C         140.9730  142.0456  160.9146 C.2     1  UNL1        0.2505
     13 O         140.5388  140.9603  161.8545 O.2     1  UNL1       -0.2700
     14 N         140.6300  143.4755  161.2104 N.am    1  UNL1       -0.3000
     15 H         140.9149  144.1879  160.5935 H       1  UNL1        0.1498
     16 C         139.8529  143.8202  162.4462 C.3     1  UNL1        0.0986
     17 C         140.5690  144.3071  163.6711 C.3     1  UNL1        0.0220
     18 C         139.7919  144.6517  164.9069 C.3     1  UNL1        0.0019
     19 C         138.2987  144.5094  164.9180 C.3     1  UNL1        0.0026
     20 C         137.5826  144.0225  163.6932 C.3     1  UNL1        0.0309
     21 C         138.3597  143.6778  162.4573 C.3     1  UNL1        0.1283
     22 O         137.6436  143.1909  161.2325 O.3     1  UNL1       -0.3828
     23 H         136.6901  143.1572  161.4075 H       1  UNL1        0.2104
     24 C         141.3720  139.4612  156.4244 C.3     1  UNL1        0.1007
     25 N         142.4765  135.1004  156.5422 N.pl3   1  UNL1       -0.3046
     26 C         141.5280  135.6059  155.4958 C.3     1  UNL1        0.1081
     27 C         141.1599  137.0594  155.4565 C.3     1  UNL1        0.0941
     28 N         141.7402  138.0076  156.4637 N.3     1  UNL1       -0.2659
     29 C         142.6886  137.5022  157.5101 C.3     1  UNL1        0.0941
     30 C         143.0568  136.0485  157.5493 C.3     1  UNL1        0.1081
     31 C         143.5810  130.7397  156.6600 C.ar    1  UNL1        0.0685
     32 C         142.3866  131.1898  155.8723 C.ar    1  UNL1        0.0115
     33 C         142.0183  132.6434  155.8330 C.ar    1  UNL1        0.0152
     34 C         142.8446  133.6469  156.5815 C.ar    1  UNL1        0.0480
     35 C         144.0392  133.1967  157.3693 C.ar    1  UNL1        0.0152
     36 C         144.4073  131.7432  157.4085 C.ar    1  UNL1        0.0115
     37 N         144.3173  127.8325  156.7386 N.1     1  UNL1       -0.1908
     38 C         143.9492  129.2861  156.6993 C.1     1  UNL1        0.1004
@<TRIPOS>BOND
     1    37    38    3
     2    38    31    1
     3    31    32   ar
     4    32    33   ar
     5    33    34   ar
     6    34    25    1
     7    25    26    1
     8    26    27    1
     9    27    28    1
    10    28    24    1
    11    24     1    1
    12     1     2   ar
    13     2     3   ar
    14     3    12    1
    15    12    13    2
    16    12    14   am
    17    16    14    1
    18    16    17    1
    19    17    18    1
    20    18    19    1
    21    19    20    1
    22    20    21    1
    23    21    22    1
    24     3     4   ar
    25     4     5    2
    26     4     6   ar
    27     6     7   ar
    28     7     8   ar
    29     8     9   ar
    30     9    10   ar
    31    10    11   ar
    32    28    29    1
    33    29    30    1
    34    34    35   ar
    35    35    36   ar
    36    36    31   ar
    37    30    25    1
    38    11     1   ar
    39    21    16    1
    40    11     6   ar
    41    14    15    1
    42    22    23    1
@<TRIPOS>MOLECULE
*****
 38 42 0 0 0
SMALL
GASTEIGER

@<TRIPOS>ATOM
      1 C         140.7068  141.9972  159.1316 C.ar    1  UNL1        0.0104
      2 C         139.3648  142.2553  158.5131 C.ar    1  UNL1        0.0078
      3 C         138.6917  141.1838  157.7076 C.ar    1  UNL1        0.1095
      4 C         139.3605  139.8543  157.5206 C.ar    1  UNL1        0.2691
      5 O         138.6874  138.7828  156.7150 O.2     1  UNL1       -0.2665
      6 N         140.7025  139.5962  158.1390 N.ar    1  UNL1       -0.2733
      7 C         141.3714  138.2667  157.9520 C.ar    1  UNL1        0.0829
      8 C         142.7133  138.0087  158.5705 C.ar    1  UNL1        0.0191
      9 C         143.3864  139.0801  159.3760 C.ar    1  UNL1        0.0030
     10 C         142.7176  140.4096  159.5630 C.ar    1  UNL1        0.0174
     11 C         141.3757  140.6677  158.9446 C.ar    1  UNL1        0.0642
     12 C         137.3497  141.4419  157.0891 C.2     1  UNL1        0.2505
     13 O         136.9457  142.8413  156.7307 O.2     1  UNL1       -0.2700
     14 N         136.4117  140.3006  156.8291 N.am    1  UNL1       -0.3000
     15 H         136.6769  139.3822  157.0643 H       1  UNL1        0.1498
     16 C         135.0698  140.5588  156.2106 C.3     1  UNL1        0.0986
     17 C         134.9755  141.2677  154.8920 C.3     1  UNL1        0.0220
     18 C         133.6335  141.5259  154.2736 C.3     1  UNL1        0.0019
     19 C         132.3859  141.0751  154.9736 C.3     1  UNL1        0.0026
     20 C         132.4801  140.3662  156.2921 C.3     1  UNL1        0.0309
     21 C         133.8221  140.1080  156.9107 C.3     1  UNL1        0.1283
     22 O         133.9163  139.3991  158.2292 O.3     1  UNL1       -0.3828
     23 H         133.0251  139.1784  158.5421 H       1  UNL1        0.2104
     24 C         141.3799  143.0687  159.9371 C.3     1  UNL1        0.1007
     25 N         141.5297  142.7518  164.4234 N.pl3   1  UNL1       -0.3046
     26 C         142.7198  143.2641  163.6676 C.3     1  UNL1        0.1081
     27 C         142.6698  143.3698  162.1722 C.3     1  UNL1        0.0941
     28 N         141.4298  142.9631  161.4325 N.3     1  UNL1       -0.2659
     29 C         140.2397  142.4508  162.1884 C.3     1  UNL1        0.0941
     30 C         140.2897  142.3451  163.6839 C.3     1  UNL1        0.1081
     31 C         141.6794  142.4349  168.9097 C.ar    1  UNL1        0.0685
     32 C         142.9031  142.1357  168.0955 C.ar    1  UNL1        0.0115
     33 C         142.8532  142.2414  166.6000 C.ar    1  UNL1        0.0152
     34 C         141.5796  142.6462  165.9188 C.ar    1  UNL1        0.0480
     35 C         140.3559  142.9454  166.7331 C.ar    1  UNL1        0.0152
     36 C         140.4058  142.8397  168.2286 C.ar    1  UNL1        0.0115
     37 N         141.7793  142.2236  171.9006 N.1     1  UNL1       -0.1908
     38 C         141.7293  142.3293  170.4052 C.1     1  UNL1        0.1004
@<TRIPOS>BOND
     1    37    38    3
     2    38    31    1
     3    31    32   ar
     4    32    33   ar
     5    33    34   ar
     6    34    25    1
     7    25    26    1
     8    26    27    1
     9    27    28    1
    10    28    24    1
    11    24     1    1
    12     1     2   ar
    13     2     3   ar
    14     3    12    1
    15    12    13    2
    16    12    14   am
    17    16    14    1
    18    16    17    1
    19    17    18    1
    20    18    19    1
    21    19    20    1
    22    20    21    1
    23    21    22    1
    24     3     4   ar
    25     4     5    2
    26     4     6   ar
    27     6     7   ar
    28     7     8   ar
    29     8     9   ar
    30     9    10   ar
    31    10    11   ar
    32    28    29    1
    33    29    30    1
    34    34    35   ar
    35    35    36   ar
    36    36    31   ar
    37    30    25    1
    38    11     1   ar
    39    21    16    1
    40    11     6   ar
    41    14    15    1
    42    22    23    1
@<TRIPOS>MOLECULE
*****
 38 42 0 0 0
SMALL
GASTEIGER

@<TRIPOS>ATOM
      1 C         142.4930  140.3227  159.0698 C.ar    1  UNL1        0.0104
      2 C         143.0162  139.0810  158.4108 C.ar    1  UNL1        0.0078
      3 C         142.1512  138.3205  157.4498 C.ar    1  UNL1        0.1095
      4 C         140.7630  138.8018  157.1478 C.ar    1  UNL1        0.2691
      5 O         139.8980  138.0414  156.1868 O.2     1  UNL1       -0.2665
      6 N         140.2397  140.0437  157.8068 N.ar    1  UNL1       -0.2733
      7 C         138.8516  140.5250  157.5047 C.ar    1  UNL1        0.0829
      8 C         138.3284  141.7667  158.1637 C.ar    1  UNL1        0.0191
      9 C         139.1934  142.5272  159.1247 C.ar    1  UNL1        0.0030
     10 C         140.5816  142.0458  159.4267 C.ar    1  UNL1        0.0174
     11 C         141.1047  140.8041  158.7678 C.ar    1  UNL1        0.0642
     12 C         142.6744  137.0787  156.7908 C.2     1  UNL1        0.2505
     13 O         144.0371  137.0797  156.1639 O.2     1  UNL1       -0.2700
     14 N         141.8350  135.8360  156.7588 N.am    1  UNL1       -0.3000
     15 H         140.9406  135.8354  157.1703 H       1  UNL1        0.1498
     16 C         142.3583  134.5943  156.0999 C.3     1  UNL1        0.0986
     17 C         142.0600  134.3301  154.6537 C.3     1  UNL1        0.0220
     18 C         142.5833  133.0883  153.9947 C.3     1  UNL1        0.0019
     19 C         143.4048  132.1108  154.7819 C.3     1  UNL1        0.0026
     20 C         143.7031  132.3751  156.2279 C.3     1  UNL1        0.0309
     21 C         143.1798  133.6168  156.8870 C.3     1  UNL1        0.1283
     22 O         143.4781  133.8810  158.3330 O.3     1  UNL1       -0.3828
     23 H         144.0158  133.1568  158.6898 H       1  UNL1        0.2104
     24 C         143.3580  141.0832  160.0308 C.3     1  UNL1        0.1007
     25 N         142.3591  141.1130  164.4184 N.pl3   1  UNL1       -0.3046
     26 C         142.8799  142.3557  163.7593 C.3     1  UNL1        0.1081
     27 C         143.2129  142.3458  162.2968 C.3     1  UNL1        0.0941
     28 N         143.0250  141.0931  161.4933 N.3     1  UNL1       -0.2659
     29 C         142.5042  139.8504  162.1524 C.3     1  UNL1        0.0941
     30 C         142.1712  139.8603  163.6150 C.3     1  UNL1        0.1081
     31 C         141.3601  141.1428  168.8060 C.ar    1  UNL1        0.0685
     32 C         142.2016  140.0397  168.2359 C.ar    1  UNL1        0.0115
     33 C         142.5347  140.0297  166.7733 C.ar    1  UNL1        0.0152
     34 C         142.0261  141.1229  165.8809 C.ar    1  UNL1        0.0480
     35 C         141.1846  142.2260  166.4511 C.ar    1  UNL1        0.0152
     36 C         140.8516  142.2359  167.9136 C.ar    1  UNL1        0.0115
     37 N         140.6942  141.1626  171.7311 N.1     1  UNL1       -0.1908
     38 C         141.0272  141.1527  170.2685 C.1     1  UNL1        0.1004
@<TRIPOS>BOND
     1    37    38    3
     2    38    31    1
     3    31    32   ar
     4    32    33   ar
     5    33    34   ar
     6    34    25    1
     7    25    26    1
     8    26    27    1
     9    27    28    1
    10    28    24    1
    11    24     1    1
    12     1     2   ar
    13     2     3   ar
    14     3    12    1
    15    12    13    2
    16    12    14   am
    17    16    14    1
    18    16    17    1
    19    17    18    1
    20    18    19    1
    21    19    20    1
    22    20    21    1
    23    21    22    1
    24     3     4   ar
    25     4     5    2
    26     4     6   ar
    27     6     7   ar
    28     7     8   ar
    29     8     9   ar
    30     9    10   ar
    31    10    11   ar
    32    28    29    1
    33    29    30    1
    34    34    35   ar
    35    35    36   ar
    36    36    31   ar
    37    30    25    1
    38    11     1   ar
    39    21    16    1
    40    11     6   ar
    41    14    15    1
    42    22    23    1
@<TRIPOS>MOLECULE
*****
 38 42 0 0 0
SMALL
GASTEIGER

@<TRIPOS>ATOM
      1 C         140.2481  141.1567  157.3852 C.ar    1  UNL1        0.0104
      2 C         139.7785  140.3984  158.5912 C.ar    1  UNL1        0.0078
      3 C         139.3954  141.1370  159.8393 C.ar    1  UNL1        0.1095
      4 C         139.4819  142.6339  159.8814 C.ar    1  UNL1        0.2691
      5 O         139.0988  143.3725  161.1294 O.2     1  UNL1       -0.2665
      6 N         139.9515  143.3923  158.6753 N.ar    1  UNL1       -0.2733
      7 C         140.0380  144.8891  158.7174 C.ar    1  UNL1        0.0829
      8 C         140.5075  145.6474  157.5114 C.ar    1  UNL1        0.0191
      9 C         140.8906  144.9088  156.2634 C.ar    1  UNL1        0.0030
     10 C         140.8041  143.4120  156.2213 C.ar    1  UNL1        0.0174
     11 C         140.3346  142.6537  157.4272 C.ar    1  UNL1        0.0642
     12 C         138.9258  140.3786  161.0453 C.2     1  UNL1        0.2505
     13 O         137.6310  139.6228  160.9987 O.2     1  UNL1       -0.2700
     14 N         139.7511  140.3760  162.2978 N.am    1  UNL1       -0.3000
     15 H         140.6009  140.8721  162.3284 H       1  UNL1        0.1498
     16 C         139.2815  139.6177  163.5038 C.3     1  UNL1        0.0986
     17 C         138.5838  140.3391  164.6186 C.3     1  UNL1        0.0220
     18 C         138.1142  139.5807  165.8246 C.3     1  UNL1        0.0019
     19 C         138.3422  138.1010  165.9157 C.3     1  UNL1        0.0026
     20 C         139.0399  137.3796  164.8009 C.3     1  UNL1        0.0309
     21 C         139.5095  138.1379  163.5949 C.3     1  UNL1        0.1283
     22 O         140.2072  137.4165  162.4801 O.3     1  UNL1       -0.3828
     23 H         140.2726  136.4732  162.6964 H       1  UNL1        0.2104
     24 C         140.6312  140.4181  156.1371 C.3     1  UNL1        0.1007
     25 N         142.0175  136.1443  156.3875 N.pl3   1  UNL1       -0.3046
     26 C         140.6884  136.4668  155.7714 C.3     1  UNL1        0.1081
     27 C         140.2263  137.8914  155.6879 C.3     1  UNL1        0.0941
     28 N         141.0933  138.9935  156.2206 N.3     1  UNL1       -0.2659
     29 C         142.4223  138.6710  156.8367 C.3     1  UNL1        0.0941
     30 C         142.8844  137.2464  156.9202 C.3     1  UNL1        0.1081
     31 C         143.4038  131.8705  156.6380 C.ar    1  UNL1        0.0685
     32 C         142.2360  132.2304  155.7683 C.ar    1  UNL1        0.0115
     33 C         141.7738  133.6550  155.6847 C.ar    1  UNL1        0.0152
     34 C         142.4796  134.7197  156.4710 C.ar    1  UNL1        0.0480
     35 C         143.6475  134.3598  157.3408 C.ar    1  UNL1        0.0152
     36 C         144.1096  132.9353  157.4243 C.ar    1  UNL1        0.0115
     37 N         144.3280  129.0213  156.8050 N.1     1  UNL1       -0.1908
     38 C         143.8659  130.4460  156.7215 C.1     1  UNL1        0.1004
@<TRIPOS>BOND
     1    37    38    3
     2    38    31    1
     3    31    32   ar
     4    32    33   ar
     5    33    34   ar
     6    34    25    1
     7    25    26    1
     8    26    27    1
     9    27    28    1
    10    28    24    1
    11    24     1    1
    12     1     2   ar
    13     2     3   ar
    14     3    12    1
    15    12    13    2
    16    12    14   am
    17    16    14    1
    18    16    17    1
    19    17    18    1
    20    18    19    1
    21    19    20    1
    22    20    21    1
    23    21    22    1
    24     3     4   ar
    25     4     5    2
    26     4     6   ar
    27     6     7   ar
    28     7     8   ar
    29     8     9   ar
    30     9    10   ar
    31    10    11   ar
    32    28    29    1
    33    29    30    1
    34    34    35   ar
    35    35    36   ar
    36    36    31   ar
    37    30    25    1
    38    11     1   ar
    39    21    16    1
    40    11     6   ar
    41    14    15    1
    42    22    23    1
