@<TRIPOS>MOLECULE
*****
 26 30 0 0 0
SMALL
GASTEIGER

@<TRIPOS>ATOM
      1 C         144.4753  139.4558  163.7657 C.3     1  UNL1        0.0175
      2 C         143.2250  139.5117  164.5927 C.3     1  UNL1        0.0592
      3 C         143.3070  139.8349  166.0552 C.3     1  UNL1        0.0434
      4 C         142.0569  139.8909  166.8822 C.2     1  UNL1       -0.0041
      5 C         140.7247  139.6235  166.2467 C.2     1  UNL1        0.0798
      6 N         139.6716  139.7491  167.3074 N.2     1  UNL1       -0.2519
      7 C         140.3529  140.0941  168.5985 C.2     1  UNL1        0.0627
      8 C         139.8214  140.3397  169.9795 C.3     1  UNL1        0.0717
      9 C         140.7641  140.6730  171.0976 C.2     1  UNL1       -0.0198
     10 C         142.2383  140.7606  170.8347 C.2     1  UNL1       -0.0042
     11 C         142.7698  140.5149  169.4538 C.2     1  UNL1        0.0006
     12 C         141.8271  140.1817  168.3357 C.2     1  UNL1        0.0111
     13 C         140.6427  139.3003  164.7842 C.3     1  UNL1        0.1673
     14 N         141.8929  139.2443  163.9572 N.3     1  UNL1       -0.2858
     15 C         139.3140  139.3202  165.4800 C.2     1  UNL1        0.2481
     16 O         138.7341  139.5573  166.8430 O.2     1  UNL1       -0.2726
     17 N         138.2554  138.9983  164.4672 N.am    1  UNL1       -0.2825
     18 C         138.9299  138.7794  163.1454 C.ar    1  UNL1        0.0484
     19 C         138.3912  138.4343  161.7887 C.ar    1  UNL1        0.0153
     20 C         139.3279  138.2757  160.6279 C.ar    1  UNL1        0.0126
     21 C         140.8033  138.4623  160.8238 C.ar    1  UNL1        0.0575
     22 CL        141.7400  138.3038  159.6630 Cl      1  UNL1       -0.0823
     23 C         141.3420  138.8075  162.1805 C.ar    1  UNL1        0.0104
     24 C         140.4053  138.9660  163.3413 C.ar    1  UNL1        0.0184
     25 H         141.7814  139.9279  163.2084 H       1  UNL1        0.1242
     26 H         137.2879  138.9409  164.6397 H       1  UNL1        0.1549
@<TRIPOS>BOND
     1     2     1    1
     2     2     3    1
     3     3     4    1
     4     4     5    2
     5     5     6    1
     6     6     7    2
     7     7     8    1
     8     8     9    1
     9     9    10    2
    10    10    11    1
    11    11    12    2
    12     5    13    1
    13    13    14    1
    14    13    15    1
    15    15    16    2
    16    15    17   am
    17    17    18    1
    18    18    19   ar
    19    19    20   ar
    20    20    21   ar
    21    21    22    1
    22    21    23   ar
    23    23    24   ar
    24    14     2    1
    25    24    18   ar
    26    12     4    1
    27    24    13    1
    28    12     7    1
    29    14    25    1
    30    17    26    1
@<TRIPOS>MOLECULE
*****
 26 30 0 0 0
SMALL
GASTEIGER

@<TRIPOS>ATOM
      1 C         143.7228  142.8822  165.7224 C.3     1  UNL1        0.0175
      2 C         142.5727  141.9253  165.6141 C.3     1  UNL1        0.0592
      3 C         142.1944  141.3554  164.2792 C.3     1  UNL1        0.0434
      4 C         141.0443  140.3985  164.1708 C.2     1  UNL1       -0.0041
      5 C         140.2726  140.0116  165.3975 C.2     1  UNL1        0.0798
      6 N         139.1949  139.0537  164.9840 N.2     1  UNL1       -0.2519
      7 C         139.3006  138.8485  163.5019 C.2     1  UNL1        0.0627
      8 C         138.5037  138.0123  162.5450 C.3     1  UNL1        0.0717
      9 C         138.8499  138.0073  161.0855 C.2     1  UNL1       -0.0198
     10 C         139.9930  138.8384  160.5829 C.2     1  UNL1       -0.0042
     11 C         140.7899  139.6747  161.5398 C.2     1  UNL1        0.0006
     12 C         140.4437  139.6797  162.9993 C.2     1  UNL1        0.0111
     13 C         140.6508  140.5816  166.7324 C.3     1  UNL1        0.1673
     14 N         141.8009  141.5384  166.8408 N.3     1  UNL1       -0.2858
     15 C         139.4833  139.6410  166.7793 C.2     1  UNL1        0.2481
     16 O         138.6569  138.7886  165.8625 O.2     1  UNL1       -0.2726
     17 N         139.0219  139.5454  168.2034 N.am    1  UNL1       -0.2825
     18 C         139.9043  140.4269  169.0366 C.ar    1  UNL1        0.0484
     19 C         139.9211  140.7292  170.5057 C.ar    1  UNL1        0.0153
     20 C         140.9448  141.6719  171.0657 C.ar    1  UNL1        0.0126
     21 C         141.9514  142.3123  170.1567 C.ar    1  UNL1        0.0575
     22 CL        142.9750  143.2550  170.7167 Cl      1  UNL1       -0.0823
     23 C         141.9346  142.0100  168.6876 C.ar    1  UNL1        0.0104
     24 C         140.9110  141.0673  168.1275 C.ar    1  UNL1        0.0184
     25 H         142.4690  141.1235  167.4903 H       1  UNL1        0.1242
     26 H         138.2717  138.9999  168.5332 H       1  UNL1        0.1549
@<TRIPOS>BOND
     1     2     1    1
     2     2     3    1
     3     3     4    1
     4     4     5    2
     5     5     6    1
     6     6     7    2
     7     7     8    1
     8     8     9    1
     9     9    10    2
    10    10    11    1
    11    11    12    2
    12     5    13    1
    13    13    14    1
    14    13    15    1
    15    15    16    2
    16    15    17   am
    17    17    18    1
    18    18    19   ar
    19    19    20   ar
    20    20    21   ar
    21    21    22    1
    22    21    23   ar
    23    23    24   ar
    24    14     2    1
    25    24    18   ar
    26    12     4    1
    27    24    13    1
    28    12     7    1
    29    14    25    1
    30    17    26    1
@<TRIPOS>MOLECULE
*****
 26 30 0 0 0
SMALL
GASTEIGER

@<TRIPOS>ATOM
      1 C         139.6344  143.6885  165.6707 C.3     1  UNL1        0.0175
      2 C         140.5380  142.5082  165.4696 C.3     1  UNL1        0.0592
      3 C         140.9512  142.1074  164.0844 C.3     1  UNL1        0.0434
      4 C         141.8547  140.9271  163.8832 C.2     1  UNL1       -0.0041
      5 C         142.3451  140.1476  165.0672 C.2     1  UNL1        0.0798
      6 N         143.2196  139.0386  164.5620 N.2     1  UNL1       -0.2519
      7 C         143.2698  139.1327  163.0658 C.2     1  UNL1        0.0627
      8 C         143.9746  138.3064  162.0312 C.3     1  UNL1        0.0717
      9 C         143.8358  138.6473  160.5771 C.2     1  UNL1       -0.0198
     10 C         142.9923  139.8145  160.1576 C.2     1  UNL1       -0.0042
     11 C         142.2875  140.6408  161.1922 C.2     1  UNL1        0.0006
     12 C         142.4262  140.2999  162.6463 C.2     1  UNL1        0.0111
     13 C         141.9319  140.5483  166.4524 C.3     1  UNL1        0.1673
     14 N         141.0283  141.7286  166.6536 N.3     1  UNL1       -0.2858
     15 C         142.8351  139.3516  166.4074 C.2     1  UNL1        0.2481
     16 O         143.5593  138.4954  165.4111 O.2     1  UNL1       -0.2726
     17 N         143.0666  138.8923  167.8164 N.am    1  UNL1       -0.2825
     18 C         142.3063  139.8051  168.7323 C.ar    1  UNL1        0.0484
     19 C         142.1621  139.8365  170.2250 C.ar    1  UNL1        0.0153
     20 C         141.3164  140.8915  170.8746 C.ar    1  UNL1        0.0126
     21 C         140.6152  141.9150  170.0317 C.ar    1  UNL1        0.0575
     22 CL        139.7696  142.9700  170.6814 Cl      1  UNL1       -0.0823
     23 C         140.7595  141.8835  168.5390 C.ar    1  UNL1        0.0104
     24 C         141.6050  140.8286  167.8893 C.ar    1  UNL1        0.0184
     25 H         141.5304  142.3854  167.2511 H       1  UNL1        0.1242
     26 H         143.6202  138.1262  168.0918 H       1  UNL1        0.1549
@<TRIPOS>BOND
     1     2     1    1
     2     2     3    1
     3     3     4    1
     4     4     5    2
     5     5     6    1
     6     6     7    2
     7     7     8    1
     8     8     9    1
     9     9    10    2
    10    10    11    1
    11    11    12    2
    12     5    13    1
    13    13    14    1
    14    13    15    1
    15    15    16    2
    16    15    17   am
    17    17    18    1
    18    18    19   ar
    19    19    20   ar
    20    20    21   ar
    21    21    22    1
    22    21    23   ar
    23    23    24   ar
    24    14     2    1
    25    24    18   ar
    26    12     4    1
    27    24    13    1
    28    12     7    1
    29    14    25    1
    30    17    26    1
@<TRIPOS>MOLECULE
*****
 26 30 0 0 0
SMALL
GASTEIGER

@<TRIPOS>ATOM
      1 C         138.1450  137.5113  166.0607 C.3     1  UNL1        0.0175
      2 C         139.3599  138.2794  165.6314 C.3     1  UNL1        0.0592
      3 C         139.9981  137.9930  164.3045 C.3     1  UNL1        0.0434
      4 C         141.2129  138.7609  163.8752 C.2     1  UNL1       -0.0041
      5 C         141.7896  139.8153  164.7728 C.2     1  UNL1        0.0798
      6 N         142.9853  140.4055  164.0858 N.2     1  UNL1       -0.2519
      7 C         143.1476  139.7160  162.7636 C.2     1  UNL1        0.0627
      8 C         144.1513  139.8823  161.6614 C.3     1  UNL1        0.0717
      9 C         144.0596  139.0321  160.4290 C.2     1  UNL1       -0.0198
     10 C         142.9642  138.0157  160.2989 C.2     1  UNL1       -0.0042
     11 C         141.9605  137.8494  161.4011 C.2     1  UNL1        0.0006
     12 C         142.0522  138.6995  162.6334 C.2     1  UNL1        0.0111
     13 C         141.1514  140.1017  166.0997 C.3     1  UNL1        0.1673
     14 N         139.9366  139.3338  166.5290 N.3     1  UNL1       -0.2858
     15 C         142.3559  140.9464  165.8070 C.2     1  UNL1        0.2481
     16 O         143.3830  141.1503  164.7329 O.2     1  UNL1       -0.2726
     17 N         142.5738  141.8633  166.9740 N.am    1  UNL1       -0.2825
     18 C         141.5040  141.5853  167.9879 C.ar    1  UNL1        0.0484
     19 C         141.2167  142.1828  169.3334 C.ar    1  UNL1        0.0153
     20 C         140.0503  141.6916  170.1386 C.ar    1  UNL1        0.0126
     21 C         139.1712  140.6029  169.5983 C.ar    1  UNL1        0.0575
     22 CL        138.0048  140.1117  170.4035 Cl      1  UNL1       -0.0823
     23 C         139.4585  140.0054  168.2528 C.ar    1  UNL1        0.0104
     24 C         140.6249  140.4966  167.4476 C.ar    1  UNL1        0.0184
     25 H         139.1979  140.0181  166.6918 H       1  UNL1        0.1242
     26 H         143.2928  142.5305  167.0594 H       1  UNL1        0.1549
@<TRIPOS>BOND
     1     2     1    1
     2     2     3    1
     3     3     4    1
     4     4     5    2
     5     5     6    1
     6     6     7    2
     7     7     8    1
     8     8     9    1
     9     9    10    2
    10    10    11    1
    11    11    12    2
    12     5    13    1
    13    13    14    1
    14    13    15    1
    15    15    16    2
    16    15    17   am
    17    17    18    1
    18    18    19   ar
    19    19    20   ar
    20    20    21   ar
    21    21    22    1
    22    21    23   ar
    23    23    24   ar
    24    14     2    1
    25    24    18   ar
    26    12     4    1
    27    24    13    1
    28    12     7    1
    29    14    25    1
    30    17    26    1
@<TRIPOS>MOLECULE
*****
 26 30 0 0 0
SMALL
GASTEIGER

@<TRIPOS>ATOM
      1 C         138.8813  144.8530  164.7708 C.3     1  UNL1        0.0175
      2 C         139.8728  143.7627  165.0509 C.3     1  UNL1        0.0592
      3 C         139.8830  143.0838  166.3885 C.3     1  UNL1        0.0434
      4 C         140.8744  141.9935  166.6686 C.2     1  UNL1       -0.0041
      5 C         141.8555  141.5822  165.6112 C.2     1  UNL1        0.0798
      6 N         142.7087  140.4836  166.1727 N.2     1  UNL1       -0.2519
      7 C         142.2548  140.2160  167.5771 C.2     1  UNL1        0.0627
      8 C         142.7274  139.2432  168.6164 C.3     1  UNL1        0.0717
      9 C         142.0663  139.2035  169.9622 C.2     1  UNL1       -0.0198
     10 C         140.9326  140.1367  170.2687 C.2     1  UNL1       -0.0042
     11 C         140.4600  141.1095  169.2294 C.2     1  UNL1        0.0006
     12 C         141.1211  141.1492  167.8836 C.2     1  UNL1        0.0111
     13 C         141.8453  142.2611  164.2736 C.3     1  UNL1        0.1673
     14 N         140.8539  143.3514  163.9935 N.3     1  UNL1       -0.2858
     15 C         142.8899  141.1930  164.4076 C.2     1  UNL1        0.2481
     16 O         143.3983  140.2027  165.4131 O.2     1  UNL1       -0.2726
     17 N         143.6443  141.1174  163.1134 N.am    1  UNL1       -0.2825
     18 C         143.0660  142.1388  162.1795 C.ar    1  UNL1        0.0484
     19 C         143.4082  142.5166  160.7688 C.ar    1  UNL1        0.0153
     20 C         142.6385  143.6013  160.0751 C.ar    1  UNL1        0.0126
     21 C         141.5268  144.3081  160.7921 C.ar    1  UNL1        0.0575
     22 CL        140.7571  145.3928  160.0984 Cl      1  UNL1       -0.0823
     23 C         141.1845  143.9303  162.2028 C.ar    1  UNL1        0.0104
     24 C         141.9542  142.8457  162.8965 C.ar    1  UNL1        0.0184
     25 H         140.3079  143.0524  163.1855 H       1  UNL1        0.1242
     26 H         144.3884  140.5049  162.9122 H       1  UNL1        0.1549
@<TRIPOS>BOND
     1     2     1    1
     2     2     3    1
     3     3     4    1
     4     4     5    2
     5     5     6    1
     6     6     7    2
     7     7     8    1
     8     8     9    1
     9     9    10    2
    10    10    11    1
    11    11    12    2
    12     5    13    1
    13    13    14    1
    14    13    15    1
    15    15    16    2
    16    15    17   am
    17    17    18    1
    18    18    19   ar
    19    19    20   ar
    20    20    21   ar
    21    21    22    1
    22    21    23   ar
    23    23    24   ar
    24    14     2    1
    25    24    18   ar
    26    12     4    1
    27    24    13    1
    28    12     7    1
    29    14    25    1
    30    17    26    1
@<TRIPOS>MOLECULE
*****
 26 30 0 0 0
SMALL
GASTEIGER

@<TRIPOS>ATOM
      1 C         138.5812  144.7681  165.3170 C.3     1  UNL1        0.0175
      2 C         139.0934  143.4043  164.9593 C.3     1  UNL1        0.0592
      3 C         138.8512  142.8482  163.5874 C.3     1  UNL1        0.0434
      4 C         139.3633  141.4845  163.2297 C.2     1  UNL1       -0.0041
      5 C         140.1177  140.6768  164.2440 C.2     1  UNL1        0.0798
      6 N         140.4990  139.3731  163.6076 N.2     1  UNL1       -0.2519
      7 C         139.9803  139.3750  162.2002 C.2     1  UNL1        0.0627
      8 C         140.0565  138.3571  161.1011 C.3     1  UNL1        0.0717
      9 C         139.4307  138.6441  159.7684 C.2     1  UNL1       -0.0198
     10 C         138.7288  139.9490  159.5349 C.2     1  UNL1       -0.0042
     11 C         138.6527  140.9669  160.6339 C.2     1  UNL1        0.0006
     12 C         139.2784  140.6799  161.9666 C.2     1  UNL1        0.0111
     13 C         140.3599  141.2329  165.6159 C.3     1  UNL1        0.1673
     14 N         139.8477  142.5966  165.9736 N.3     1  UNL1       -0.2858
     15 C         140.9294  139.8615  165.4042 C.2     1  UNL1        0.2481
     16 O         141.0323  138.8121  164.3373 O.2     1  UNL1       -0.2726
     17 N         141.5987  139.4359  166.6773 N.am    1  UNL1       -0.2825
     18 C         141.4428  140.5443  167.6759 C.ar    1  UNL1        0.0484
     19 C         141.8991  140.6857  169.0977 C.ar    1  UNL1        0.0153
     20 C         141.5898  141.9379  169.8636 C.ar    1  UNL1        0.0126
     21 C         140.8242  143.0484  169.2077 C.ar    1  UNL1        0.0575
     22 CL        140.5149  144.3006  169.9735 Cl      1  UNL1       -0.0823
     23 C         140.3679  142.9070  167.7858 C.ar    1  UNL1        0.0104
     24 C         140.6772  141.6549  167.0199 C.ar    1  UNL1        0.0184
     25 H         140.6574  143.1523  166.2493 H       1  UNL1        0.1242
     26 H         142.0594  138.5794  166.8306 H       1  UNL1        0.1549
@<TRIPOS>BOND
     1     2     1    1
     2     2     3    1
     3     3     4    1
     4     4     5    2
     5     5     6    1
     6     6     7    2
     7     7     8    1
     8     8     9    1
     9     9    10    2
    10    10    11    1
    11    11    12    2
    12     5    13    1
    13    13    14    1
    14    13    15    1
    15    15    16    2
    16    15    17   am
    17    17    18    1
    18    18    19   ar
    19    19    20   ar
    20    20    21   ar
    21    21    22    1
    22    21    23   ar
    23    23    24   ar
    24    14     2    1
    25    24    18   ar
    26    12     4    1
    27    24    13    1
    28    12     7    1
    29    14    25    1
    30    17    26    1
@<TRIPOS>MOLECULE
*****
 26 30 0 0 0
SMALL
GASTEIGER

@<TRIPOS>ATOM
      1 C         143.5930  140.6618  162.0334 C.3     1  UNL1        0.0175
      2 C         142.8012  141.2355  163.1711 C.3     1  UNL1        0.0592
      3 C         142.8481  140.5838  164.5213 C.3     1  UNL1        0.0434
      4 C         142.0565  141.1574  165.6589 C.2     1  UNL1       -0.0041
      5 C         141.2180  142.3829  165.4463 C.2     1  UNL1        0.0798
      6 N         140.5499  142.7187  166.7466 N.2     1  UNL1       -0.2519
      7 C         140.9755  141.7008  167.7629 C.2     1  UNL1        0.0627
      8 C         140.6355  141.5279  169.2135 C.3     1  UNL1        0.0717
      9 C         141.2266  140.3900  169.9919 C.2     1  UNL1       -0.0198
     10 C         142.1577  139.4251  169.3196 C.2     1  UNL1       -0.0042
     11 C         142.4977  139.5980  167.8690 C.2     1  UNL1        0.0006
     12 C         141.9066  140.7359  167.0906 C.2     1  UNL1        0.0111
     13 C         141.1711  143.0346  164.0961 C.3     1  UNL1        0.1673
     14 N         141.9628  142.4610  162.9585 N.3     1  UNL1       -0.2858
     15 C         140.3303  143.7185  165.1331 C.2     1  UNL1        0.2481
     16 O         139.9599  143.5880  166.5808 O.2     1  UNL1       -0.2726
     17 N         139.6657  144.8979  164.4871 N.am    1  UNL1       -0.2825
     18 C         140.0958  144.9429  163.0508 C.ar    1  UNL1        0.0484
     19 C         139.7603  145.8838  161.9318 C.ar    1  UNL1        0.0153
     20 C         140.3554  145.6730  160.5710 C.ar    1  UNL1        0.0126
     21 C         141.2856  144.5216  160.3293 C.ar    1  UNL1        0.0575
     22 CL        141.8807  144.3108  158.9685 Cl      1  UNL1       -0.0823
     23 C         141.6211  143.5807  161.4483 C.ar    1  UNL1        0.0104
     24 C         141.0261  143.7914  162.8091 C.ar    1  UNL1        0.0184
     25 H         142.5923  143.1965  162.6374 H       1  UNL1        0.1242
     26 H         139.0546  145.5312  164.9284 H       1  UNL1        0.1549
@<TRIPOS>BOND
     1     2     1    1
     2     2     3    1
     3     3     4    1
     4     4     5    2
     5     5     6    1
     6     6     7    2
     7     7     8    1
     8     8     9    1
     9     9    10    2
    10    10    11    1
    11    11    12    2
    12     5    13    1
    13    13    14    1
    14    13    15    1
    15    15    16    2
    16    15    17   am
    17    17    18    1
    18    18    19   ar
    19    19    20   ar
    20    20    21   ar
    21    21    22    1
    22    21    23   ar
    23    23    24   ar
    24    14     2    1
    25    24    18   ar
    26    12     4    1
    27    24    13    1
    28    12     7    1
    29    14    25    1
    30    17    26    1
@<TRIPOS>MOLECULE
*****
 26 30 0 0 0
SMALL
GASTEIGER

@<TRIPOS>ATOM
      1 C         138.2568  139.8515  165.2954 C.3     1  UNL1        0.0175
      2 C         139.6059  140.5028  165.2201 C.3     1  UNL1        0.0592
      3 C         140.2600  140.7214  163.8880 C.3     1  UNL1        0.0434
      4 C         141.6090  141.3727  163.8127 C.2     1  UNL1       -0.0041
      5 C         142.3041  141.8054  165.0695 C.2     1  UNL1        0.0798
      6 N         143.6188  142.4168  164.6850 N.2     1  UNL1       -0.2519
      7 C         143.7363  142.3619  163.1906 C.2     1  UNL1        0.0627
      8 C         144.8137  142.8161  162.2511 C.3     1  UNL1        0.0717
      9 C         144.6491  142.6250  160.7725 C.2     1  UNL1       -0.0198
     10 C         143.4070  141.9796  160.2334 C.2     1  UNL1       -0.0042
     11 C         142.3295  141.5254  161.1728 C.2     1  UNL1        0.0006
     12 C         142.4941  141.7165  162.6514 C.2     1  UNL1        0.0111
     13 C         141.6501  141.5869  166.4016 C.3     1  UNL1        0.1673
     14 N         140.3010  140.9356  166.4769 N.3     1  UNL1       -0.2858
     15 C         142.9943  142.2476  166.4829 C.2     1  UNL1        0.2481
     16 O         144.0996  142.7184  165.5846 O.2     1  UNL1       -0.2726
     17 N         143.2981  142.5040  167.9293 N.am    1  UNL1       -0.2825
     18 C         142.1416  142.0018  168.7418 C.ar    1  UNL1        0.0484
     19 C         141.8843  141.9874  170.2195 C.ar    1  UNL1        0.0153
     20 C         140.6085  141.4062  170.7531 C.ar    1  UNL1        0.0126
     21 C         139.5901  140.8394  169.8089 C.ar    1  UNL1        0.0575
     22 CL        138.3143  140.2582  170.3425 Cl      1  UNL1       -0.0823
     23 C         139.8474  140.8538  168.3313 C.ar    1  UNL1        0.0104
     24 C         141.1231  141.4350  167.7977 C.ar    1  UNL1        0.0184
     25 H         139.6805  141.5969  166.9439 H       1  UNL1        0.1242
     26 H         144.1133  142.9276  168.2831 H       1  UNL1        0.1549
@<TRIPOS>BOND
     1     2     1    1
     2     2     3    1
     3     3     4    1
     4     4     5    2
     5     5     6    1
     6     6     7    2
     7     7     8    1
     8     8     9    1
     9     9    10    2
    10    10    11    1
    11    11    12    2
    12     5    13    1
    13    13    14    1
    14    13    15    1
    15    15    16    2
    16    15    17   am
    17    17    18    1
    18    18    19   ar
    19    19    20   ar
    20    20    21   ar
    21    21    22    1
    22    21    23   ar
    23    23    24   ar
    24    14     2    1
    25    24    18   ar
    26    12     4    1
    27    24    13    1
    28    12     7    1
    29    14    25    1
    30    17    26    1
@<TRIPOS>MOLECULE
*****
 26 30 0 0 0
SMALL
GASTEIGER

@<TRIPOS>ATOM
      1 C         143.8435  138.0912  161.9678 C.3     1  UNL1        0.0175
      2 C         142.7492  138.5893  162.8647 C.3     1  UNL1        0.0592
      3 C         142.9726  138.6718  164.3457 C.3     1  UNL1        0.0434
      4 C         141.8783  139.1699  165.2427 C.2     1  UNL1       -0.0041
      5 C         140.5607  139.5855  164.6586 C.2     1  UNL1        0.0798
      6 N         139.6753  140.0327  165.7838 N.2     1  UNL1       -0.2519
      7 C         140.4457  139.8935  167.0633 C.2     1  UNL1        0.0627
      8 C         140.0834  140.1834  168.4897 C.3     1  UNL1        0.0717
      9 C         141.0826  139.9401  169.5816 C.2     1  UNL1       -0.0198
     10 C         142.4441  139.4068  169.2471 C.2     1  UNL1       -0.0042
     11 C         142.8065  139.1169  167.8208 C.2     1  UNL1        0.0006
     12 C         141.8073  139.3602  166.7288 C.2     1  UNL1        0.0111
     13 C         140.3373  139.5030  163.1776 C.3     1  UNL1        0.1673
     14 N         141.4316  139.0049  162.2807 N.3     1  UNL1       -0.2858
     15 C         139.1560  140.0185  163.9449 C.2     1  UNL1        0.2481
     16 O         138.7463  140.3239  165.3552 O.2     1  UNL1       -0.2726
     17 N         138.0583  140.3102  162.9652 N.am    1  UNL1       -0.2825
     18 C         138.5611  139.9749  161.5924 C.ar    1  UNL1        0.0484
     19 C         137.9184  140.0595  160.2397 C.ar    1  UNL1        0.0153
     20 C         138.6842  139.6452  159.0183 C.ar    1  UNL1        0.0126
     21 C         140.0927  139.1464  159.1495 C.ar    1  UNL1        0.0575
     22 CL        140.8585  138.7321  157.9280 Cl      1  UNL1       -0.0823
     23 C         140.7354  139.0618  160.5021 C.ar    1  UNL1        0.0104
     24 C         139.9696  139.4761  161.7236 C.ar    1  UNL1        0.0184
     25 H         141.6276  139.7508  161.6131 H       1  UNL1        0.1242
     26 H         137.1646  140.6601  163.1848 H       1  UNL1        0.1549
@<TRIPOS>BOND
     1     2     1    1
     2     2     3    1
     3     3     4    1
     4     4     5    2
     5     5     6    1
     6     6     7    2
     7     7     8    1
     8     8     9    1
     9     9    10    2
    10    10    11    1
    11    11    12    2
    12     5    13    1
    13    13    14    1
    14    13    15    1
    15    15    16    2
    16    15    17   am
    17    17    18    1
    18    18    19   ar
    19    19    20   ar
    20    20    21   ar
    21    21    22    1
    22    21    23   ar
    23    23    24   ar
    24    14     2    1
    25    24    18   ar
    26    12     4    1
    27    24    13    1
    28    12     7    1
    29    14    25    1
    30    17    26    1
