@<TRIPOS>MOLECULE
*****
 30 33 0 0 0
SMALL
GASTEIGER

@<TRIPOS>ATOM
      1 C         142.3511  138.4994  165.7891 C.ar    1  UNL1        0.1572
      2 C         141.7498  137.6762  164.6888 C.ar    1  UNL1        0.0575
      3 C         140.4739  138.1165  164.0343 C.ar    1  UNL1        0.0888
      4 N         139.8726  137.2933  162.9340 N.ar    1  UNL1       -0.2238
      5 C         138.5967  137.7335  162.2795 C.ar    1  UNL1        0.2000
      6 N         137.9223  138.9970  162.7253 N.ar    1  UNL1       -0.2089
      7 C         138.5236  139.8202  163.8256 C.ar    1  UNL1        0.1353
      8 C         139.7994  139.3799  164.4801 C.ar    1  UNL1        0.0509
      9 C         140.4008  140.2031  165.5804 C.ar    1  UNL1        0.0257
     10 C         141.6766  139.7629  166.2349 C.ar    1  UNL1        0.1395
     11 S         142.2780  140.5861  167.3353 S.O2    1  UNL1        0.0083
     12 O         141.5082  139.7930  168.3494 O.2     1  UNL1       -0.1686
     13 O         143.0478  141.3791  166.3212 O.2     1  UNL1       -0.1686
     14 C         142.8794  141.4093  168.4356 C.3     1  UNL1        0.1152
     15 C         142.5422  140.3334  169.4248 C.3     1  UNL1        0.0240
     16 C         143.2166  142.4851  167.4463 C.3     1  UNL1        0.0240
     17 C         143.4808  142.2324  169.5358 C.3     1  UNL1        0.0240
     18 C         144.9462  138.3762  165.8042 C.3     1  UNL1        0.2525
     19 O         143.6270  138.0591  166.4437 O.3     1  UNL1       -0.4701
     20 N         137.8491  141.0836  164.2714 N.pl3   1  UNL1       -0.2978
     21 H         137.0921  141.0423  164.8995 H       1  UNL1        0.1536
     22 C         138.3280  142.4100  163.7602 C.ar    1  UNL1        0.0509
     23 C         138.3909  143.5911  164.6829 C.ar    1  UNL1        0.0153
     24 C         138.8698  144.9175  164.1718 C.ar    1  UNL1        0.0093
     25 C         139.2857  145.0629  162.7380 C.ar    1  UNL1        0.0486
     26 S         139.7965  146.2361  161.9551 S.2     1  UNL1       -0.0645
     27 C         140.0493  145.7801  160.5486 C.ar    1  UNL1        0.1345
     28 N         139.6947  144.3252  160.4622 N.ar    1  UNL1       -0.2362
     29 C         139.2228  143.8820  161.8153 C.ar    1  UNL1        0.0892
     30 C         138.7439  142.5555  162.3264 C.ar    1  UNL1        0.0343
@<TRIPOS>BOND
     1    18    19    1
     2    19     1    1
     3     1     2   ar
     4     2     3   ar
     5     3     4   ar
     6     4     5   ar
     7     5     6   ar
     8     6     7   ar
     9     7    20    1
    10    20    22    1
    11    22    23   ar
    12    23    24   ar
    13    24    25   ar
    14    25    26   ar
    15    26    27   ar
    16    27    28   ar
    17    28    29   ar
    18    29    30   ar
    19     7     8   ar
    20     8     9   ar
    21     9    10   ar
    22    10    11    1
    23    11    12    2
    24    11    13    2
    25    11    14    1
    26    14    15    1
    27    14    16    1
    28    14    17    1
    29    10     1   ar
    30     8     3   ar
    31    30    22   ar
    32    29    25   ar
    33    20    21    1
@<TRIPOS>MOLECULE
*****
 30 33 0 0 0
SMALL
GASTEIGER

@<TRIPOS>ATOM
      1 C         142.2429  139.4675  167.5118 C.ar    1  UNL1        0.1572
      2 C         142.7107  138.6134  166.3709 C.ar    1  UNL1        0.0575
      3 C         141.9255  138.5725  165.0934 C.ar    1  UNL1        0.0888
      4 N         142.3933  137.7185  163.9526 N.ar    1  UNL1       -0.2238
      5 C         141.6081  137.6776  162.6752 C.ar    1  UNL1        0.2000
      6 N         140.3551  138.4908  162.5387 N.ar    1  UNL1       -0.2089
      7 C         139.8873  139.3449  163.6795 C.ar    1  UNL1        0.1353
      8 C         140.6725  139.3858  164.9569 C.ar    1  UNL1        0.0509
      9 C         140.2047  140.2399  166.0979 C.ar    1  UNL1        0.0257
     10 C         140.9899  140.2808  167.3753 C.ar    1  UNL1        0.1395
     11 S         140.5221  141.1349  168.5162 S.O2    1  UNL1        0.0083
     12 O         139.6467  140.0152  168.9956 O.2     1  UNL1       -0.1686
     13 O         141.3975  142.2546  168.0368 O.2     1  UNL1       -0.1686
     14 C         140.0543  141.9890  169.6571 C.3     1  UNL1        0.1152
     15 C         139.3448  140.8081  170.2503 C.3     1  UNL1        0.0240
     16 C         140.7639  143.1699  169.0639 C.3     1  UNL1        0.0240
     17 C         139.5866  142.8431  170.7980 C.3     1  UNL1        0.0240
     18 C         142.6786  138.5801  169.9144 C.3     1  UNL1        0.2525
     19 O         143.0281  139.5084  168.7893 O.3     1  UNL1       -0.4701
     20 N         138.6343  140.1582  163.5430 N.pl3   1  UNL1       -0.2978
     21 H         137.7555  139.7337  163.6720 H       1  UNL1        0.1536
     22 C         138.7203  141.6182  163.2100 C.ar    1  UNL1        0.0509
     23 C         137.8111  142.5977  163.8912 C.ar    1  UNL1        0.0153
     24 C         137.8971  144.0577  163.5582 C.ar    1  UNL1        0.0093
     25 C         138.8924  144.5383  162.5440 C.ar    1  UNL1        0.0486
     26 S         139.2051  145.9065  162.0148 S.2     1  UNL1       -0.0645
     27 C         140.3076  145.7727  161.0065 C.ar    1  UNL1        0.1345
     28 N         140.6762  144.3217  160.9126 N.ar    1  UNL1       -0.2362
     29 C         139.8016  143.5589  161.8628 C.ar    1  UNL1        0.0892
     30 C         139.7156  142.0988  162.1958 C.ar    1  UNL1        0.0343
@<TRIPOS>BOND
     1    18    19    1
     2    19     1    1
     3     1     2   ar
     4     2     3   ar
     5     3     4   ar
     6     4     5   ar
     7     5     6   ar
     8     6     7   ar
     9     7    20    1
    10    20    22    1
    11    22    23   ar
    12    23    24   ar
    13    24    25   ar
    14    25    26   ar
    15    26    27   ar
    16    27    28   ar
    17    28    29   ar
    18    29    30   ar
    19     7     8   ar
    20     8     9   ar
    21     9    10   ar
    22    10    11    1
    23    11    12    2
    24    11    13    2
    25    11    14    1
    26    14    15    1
    27    14    16    1
    28    14    17    1
    29    10     1   ar
    30     8     3   ar
    31    30    22   ar
    32    29    25   ar
    33    20    21    1
@<TRIPOS>MOLECULE
*****
 30 33 0 0 0
SMALL
GASTEIGER

@<TRIPOS>ATOM
      1 C         141.9237  141.1428  167.1717 C.ar    1  UNL1        0.1572
      2 C         140.6847  140.7680  167.9295 C.ar    1  UNL1        0.0575
      3 C         139.7058  139.7995  167.3346 C.ar    1  UNL1        0.0888
      4 N         138.4668  139.4247  168.0924 N.ar    1  UNL1       -0.2238
      5 C         137.4881  138.4561  167.4975 C.ar    1  UNL1        0.2000
      6 N         137.7483  137.8624  166.1448 N.ar    1  UNL1       -0.2089
      7 C         138.9874  138.2372  165.3870 C.ar    1  UNL1        0.1353
      8 C         139.9661  139.2057  165.9819 C.ar    1  UNL1        0.0509
      9 C         141.2052  139.5806  165.2241 C.ar    1  UNL1        0.0257
     10 C         142.1840  140.5491  165.8190 C.ar    1  UNL1        0.1395
     11 S         143.4231  140.9239  165.0613 S.O2    1  UNL1        0.0083
     12 O         142.7835  142.2186  164.6557 O.2     1  UNL1       -0.1686
     13 O         144.0628  139.6292  165.4669 O.2     1  UNL1       -0.1686
     14 C         144.6622  141.2987  164.3035 C.3     1  UNL1        0.1152
     15 C         144.4018  142.7470  164.5941 C.3     1  UNL1        0.0240
     16 C         144.9226  139.8504  164.0130 C.3     1  UNL1        0.0240
     17 C         145.9013  141.6735  163.5458 C.3     1  UNL1        0.0240
     18 C         143.2224  142.0504  169.2308 C.3     1  UNL1        0.2525
     19 O         142.9026  142.1114  167.7666 O.3     1  UNL1       -0.4701
     20 N         139.2477  137.6435  164.0344 N.pl3   1  UNL1       -0.2978
     21 H         139.6210  136.7356  163.9588 H       1  UNL1        0.1536
     22 C         138.9391  138.4329  162.7968 C.ar    1  UNL1        0.0509
     23 C         138.0394  139.6306  162.8760 C.ar    1  UNL1        0.0153
     24 C         137.7309  140.4200  161.6385 C.ar    1  UNL1        0.0093
     25 C         138.3221  140.0118  160.3217 C.ar    1  UNL1        0.0486
     26 S         138.1992  140.5912  158.9436 S.2     1  UNL1       -0.0645
     27 C         139.0230  139.7517  158.0126 C.ar    1  UNL1        0.1345
     28 N         139.6549  138.6534  158.8154 N.ar    1  UNL1       -0.2362
     29 C         139.2217  138.8142  160.2424 C.ar    1  UNL1        0.0892
     30 C         139.5303  138.0247  161.4800 C.ar    1  UNL1        0.0343
@<TRIPOS>BOND
     1    18    19    1
     2    19     1    1
     3     1     2   ar
     4     2     3   ar
     5     3     4   ar
     6     4     5   ar
     7     5     6   ar
     8     6     7   ar
     9     7    20    1
    10    20    22    1
    11    22    23   ar
    12    23    24   ar
    13    24    25   ar
    14    25    26   ar
    15    26    27   ar
    16    27    28   ar
    17    28    29   ar
    18    29    30   ar
    19     7     8   ar
    20     8     9   ar
    21     9    10   ar
    22    10    11    1
    23    11    12    2
    24    11    13    2
    25    11    14    1
    26    14    15    1
    27    14    16    1
    28    14    17    1
    29    10     1   ar
    30     8     3   ar
    31    30    22   ar
    32    29    25   ar
    33    20    21    1
@<TRIPOS>MOLECULE
*****
 30 33 0 0 0
SMALL
GASTEIGER

@<TRIPOS>ATOM
      1 C         142.9452  142.2136  167.4358 C.ar    1  UNL1        0.1572
      2 C         143.9034  142.8639  166.4824 C.ar    1  UNL1        0.0575
      3 C         143.4001  143.4519  165.1975 C.ar    1  UNL1        0.0888
      4 N         144.3583  144.1021  164.2441 N.ar    1  UNL1       -0.2238
      5 C         143.8549  144.6901  162.9593 C.ar    1  UNL1        0.2000
      6 N         142.3933  144.6278  162.6278 N.ar    1  UNL1       -0.2089
      7 C         141.4351  143.9775  163.5812 C.ar    1  UNL1        0.1353
      8 C         141.9385  143.3895  164.8660 C.ar    1  UNL1        0.0509
      9 C         140.9803  142.7392  165.8195 C.ar    1  UNL1        0.0257
     10 C         141.4837  142.1513  167.1043 C.ar    1  UNL1        0.1395
     11 S         140.5254  141.5010  168.0577 S.O2    1  UNL1        0.0083
     12 O         140.3217  142.8160  168.7499 O.2     1  UNL1       -0.1686
     13 O         140.7292  140.1859  167.3655 O.2     1  UNL1       -0.1686
     14 C         139.5673  140.8506  169.0111 C.3     1  UNL1        0.1152
     15 C         139.2528  139.8055  167.9821 C.3     1  UNL1        0.0240
     16 C         139.8818  141.8957  170.0401 C.3     1  UNL1        0.0240
     17 C         138.6091  140.2003  169.9645 C.3     1  UNL1        0.0240
     18 C         143.7787  142.5220  169.8772 C.3     1  UNL1        0.2525
     19 O         143.4486  141.6256  168.7207 O.3     1  UNL1       -0.4701
     20 N         139.9735  143.9152  163.2497 N.pl3   1  UNL1       -0.2978
     21 H         139.4275  144.7340  163.2756 H       1  UNL1        0.1536
     22 C         139.3437  142.6053  162.8788 C.ar    1  UNL1        0.0509
     23 C         137.9304  142.3106  163.2861 C.ar    1  UNL1        0.0153
     24 C         137.3007  141.0007  162.9152 C.ar    1  UNL1        0.0093
     25 C         138.0841  139.9855  162.1370 C.ar    1  UNL1        0.0486
     26 S         137.7318  138.6178  161.6319 S.2     1  UNL1       -0.0645
     27 C         138.9273  138.0672  160.9125 C.ar    1  UNL1        0.1345
     28 N         140.0185  139.0946  160.9729 N.ar    1  UNL1       -0.2362
     29 C         139.4974  140.2802  161.7297 C.ar    1  UNL1        0.0892
     30 C         140.1272  141.5901  162.1006 C.ar    1  UNL1        0.0343
@<TRIPOS>BOND
     1    18    19    1
     2    19     1    1
     3     1     2   ar
     4     2     3   ar
     5     3     4   ar
     6     4     5   ar
     7     5     6   ar
     8     6     7   ar
     9     7    20    1
    10    20    22    1
    11    22    23   ar
    12    23    24   ar
    13    24    25   ar
    14    25    26   ar
    15    26    27   ar
    16    27    28   ar
    17    28    29   ar
    18    29    30   ar
    19     7     8   ar
    20     8     9   ar
    21     9    10   ar
    22    10    11    1
    23    11    12    2
    24    11    13    2
    25    11    14    1
    26    14    15    1
    27    14    16    1
    28    14    17    1
    29    10     1   ar
    30     8     3   ar
    31    30    22   ar
    32    29    25   ar
    33    20    21    1
@<TRIPOS>MOLECULE
*****
 30 33 0 0 0
SMALL
GASTEIGER

@<TRIPOS>ATOM
      1 C         138.8463  139.5863  166.6250 C.ar    1  UNL1        0.1572
      2 C         139.4663  140.0549  167.9080 C.ar    1  UNL1        0.0575
      3 C         140.7214  140.8759  167.8785 C.ar    1  UNL1        0.0888
      4 N         141.3414  141.3445  169.1614 N.ar    1  UNL1       -0.2238
      5 C         142.5963  142.1655  169.1319 C.ar    1  UNL1        0.2000
      6 N         143.2314  142.5179  167.8194 N.ar    1  UNL1       -0.2089
      7 C         142.6114  142.0493  166.5365 C.ar    1  UNL1        0.1353
      8 C         141.3564  141.2283  166.5660 C.ar    1  UNL1        0.0509
      9 C         140.7363  140.7596  165.2830 C.ar    1  UNL1        0.0257
     10 C         139.4813  139.9387  165.3126 C.ar    1  UNL1        0.1395
     11 S         138.8613  139.4700  164.0296 S.O2    1  UNL1        0.0083
     12 O         139.7933  138.2950  164.0083 O.2     1  UNL1       -0.1686
     13 O         137.9292  140.6450  164.0509 O.2     1  UNL1       -0.1686
     14 C         138.2412  139.0014  162.7467 C.3     1  UNL1        0.1152
     15 C         137.7151  140.3835  162.4961 C.3     1  UNL1        0.0240
     16 C         138.7674  137.6193  162.9972 C.3     1  UNL1        0.0240
     17 C         137.6212  138.5328  161.4638 C.3     1  UNL1        0.0240
     18 C         137.6752  137.2682  166.6960 C.3     1  UNL1        0.2525
     19 O         137.5912  138.7653  166.6545 O.3     1  UNL1       -0.4701
     20 N         143.2464  142.4017  165.2240 N.pl3   1  UNL1       -0.2978
     21 H         144.1596  142.0950  165.0209 H       1  UNL1        0.1536
     22 C         142.4901  143.2213  164.2210 C.ar    1  UNL1        0.0509
     23 C         141.3278  144.0609  164.6618 C.ar    1  UNL1        0.0153
     24 C         140.5715  144.8806  163.6588 C.ar    1  UNL1        0.0093
     25 C         140.9774  144.8607  162.2149 C.ar    1  UNL1        0.0486
     26 S         140.4258  145.5593  161.0075 S.2     1  UNL1       -0.0645
     27 C         141.2471  145.1515  159.8205 C.ar    1  UNL1        0.1345
     28 N         142.3064  144.2008  160.2942 N.ar    1  UNL1       -0.2362
     29 C         142.1396  144.0212  161.7740 C.ar    1  UNL1        0.0892
     30 C         142.8960  143.2014  162.7771 C.ar    1  UNL1        0.0343
@<TRIPOS>BOND
     1    18    19    1
     2    19     1    1
     3     1     2   ar
     4     2     3   ar
     5     3     4   ar
     6     4     5   ar
     7     5     6   ar
     8     6     7   ar
     9     7    20    1
    10    20    22    1
    11    22    23   ar
    12    23    24   ar
    13    24    25   ar
    14    25    26   ar
    15    26    27   ar
    16    27    28   ar
    17    28    29   ar
    18    29    30   ar
    19     7     8   ar
    20     8     9   ar
    21     9    10   ar
    22    10    11    1
    23    11    12    2
    24    11    13    2
    25    11    14    1
    26    14    15    1
    27    14    16    1
    28    14    17    1
    29    10     1   ar
    30     8     3   ar
    31    30    22   ar
    32    29    25   ar
    33    20    21    1
@<TRIPOS>MOLECULE
*****
 30 33 0 0 0
SMALL
GASTEIGER

@<TRIPOS>ATOM
      1 C         139.6079  142.9601  161.4198 C.ar    1  UNL1        0.1572
      2 C         138.5645  141.9780  160.9763 C.ar    1  UNL1        0.0575
      3 C         138.5678  140.5816  161.5243 C.ar    1  UNL1        0.0888
      4 N         137.5244  139.5994  161.0808 N.ar    1  UNL1       -0.2238
      5 C         137.5278  138.2031  161.6287 C.ar    1  UNL1        0.2000
      6 N         138.5745  137.7890  162.6202 N.ar    1  UNL1       -0.2089
      7 C         139.6178  138.7711  163.0636 C.ar    1  UNL1        0.1353
      8 C         139.6145  140.1674  162.5157 C.ar    1  UNL1        0.0509
      9 C         140.6579  141.1497  162.9592 C.ar    1  UNL1        0.0257
     10 C         140.6546  142.5460  162.4112 C.ar    1  UNL1        0.1395
     11 S         141.6980  143.5282  162.8547 S.O2    1  UNL1        0.0083
     12 O         142.5974  143.0747  161.7432 O.2     1  UNL1       -0.1686
     13 O         140.7986  143.9817  163.9662 O.2     1  UNL1       -0.1686
     14 C         142.7413  144.5104  163.2982 C.3     1  UNL1        0.1152
     15 C         141.6637  145.4687  163.7109 C.3     1  UNL1        0.0240
     16 C         143.8189  143.5521  162.8854 C.3     1  UNL1        0.0240
     17 C         143.7846  145.4926  163.7417 C.3     1  UNL1        0.0240
     18 C         140.2208  144.6385  159.5337 C.3     1  UNL1        0.2525
     19 O         139.6046  144.3565  160.8719 O.3     1  UNL1       -0.4701
     20 N         140.6645  138.3570  164.0550 N.pl3   1  UNL1       -0.2978
     21 H         141.3780  137.7341  163.7863 H       1  UNL1        0.1536
     22 C         140.6242  138.8918  165.4558 C.ar    1  UNL1        0.0509
     23 C         139.3083  139.2283  166.0926 C.ar    1  UNL1        0.0153
     24 C         139.2680  139.7632  167.4934 C.ar    1  UNL1        0.0093
     25 C         140.5434  139.9616  168.2575 C.ar    1  UNL1        0.0486
     26 S         140.8150  140.4682  169.6429 S.2     1  UNL1       -0.0645
     27 C         142.2986  140.4449  169.8625 C.ar    1  UNL1        0.1345
     28 N         142.9440  139.9238  168.6127 N.ar    1  UNL1       -0.2362
     29 C         141.8592  139.6252  167.6208 C.ar    1  UNL1        0.0892
     30 C         141.8996  139.0902  166.2199 C.ar    1  UNL1        0.0343
@<TRIPOS>BOND
     1    18    19    1
     2    19     1    1
     3     1     2   ar
     4     2     3   ar
     5     3     4   ar
     6     4     5   ar
     7     5     6   ar
     8     6     7   ar
     9     7    20    1
    10    20    22    1
    11    22    23   ar
    12    23    24   ar
    13    24    25   ar
    14    25    26   ar
    15    26    27   ar
    16    27    28   ar
    17    28    29   ar
    18    29    30   ar
    19     7     8   ar
    20     8     9   ar
    21     9    10   ar
    22    10    11    1
    23    11    12    2
    24    11    13    2
    25    11    14    1
    26    14    15    1
    27    14    16    1
    28    14    17    1
    29    10     1   ar
    30     8     3   ar
    31    30    22   ar
    32    29    25   ar
    33    20    21    1
@<TRIPOS>MOLECULE
*****
 30 33 0 0 0
SMALL
GASTEIGER

@<TRIPOS>ATOM
      1 C         143.0547  141.8767  166.3536 C.ar    1  UNL1        0.1572
      2 C         142.5083  142.3172  167.6792 C.ar    1  UNL1        0.0575
      3 C         141.2973  141.6430  168.2528 C.ar    1  UNL1        0.0888
      4 N         140.7508  142.0836  169.5784 N.ar    1  UNL1       -0.2238
      5 C         139.5399  141.4094  170.1519 C.ar    1  UNL1        0.2000
      6 N         138.8753  140.2947  169.3997 N.ar    1  UNL1       -0.2089
      7 C         139.4217  139.8541  168.0741 C.ar    1  UNL1        0.1353
      8 C         140.6327  140.5283  167.5006 C.ar    1  UNL1        0.0509
      9 C         141.1791  140.0878  166.1750 C.ar    1  UNL1        0.0257
     10 C         142.3901  140.7620  165.6015 C.ar    1  UNL1        0.1395
     11 S         142.9366  140.3214  164.2758 S.O2    1  UNL1        0.0083
     12 O         141.9979  141.2597  163.5770 O.2     1  UNL1       -0.1686
     13 O         143.8753  139.3832  164.9746 O.2     1  UNL1       -0.1686
     14 C         143.4831  139.8809  162.9502 C.3     1  UNL1        0.1152
     15 C         144.8791  140.0033  163.4850 C.3     1  UNL1        0.0240
     16 C         142.0871  139.7585  162.4154 C.3     1  UNL1        0.0240
     17 C         144.0296  139.4404  161.6246 C.3     1  UNL1        0.0240
     18 C         144.1123  143.7967  164.9590 C.3     1  UNL1        0.2525
     19 O         144.2658  142.5509  165.7801 O.3     1  UNL1       -0.4701
     20 N         138.7571  138.7394  167.3220 N.pl3   1  UNL1       -0.2978
     21 H         138.4013  137.9610  167.8084 H       1  UNL1        0.1536
     22 C         138.6347  138.8107  165.8287 C.ar    1  UNL1        0.0509
     23 C         139.0336  137.6353  164.9865 C.ar    1  UNL1        0.0153
     24 C         138.9112  137.7066  163.4932 C.ar    1  UNL1        0.0093
     25 C         138.3898  138.9533  162.8421 C.ar    1  UNL1        0.0486
     26 S         138.1596  139.3138  161.4044 S.2     1  UNL1       -0.0645
     27 C         137.6184  140.7120  161.3580 C.ar    1  UNL1        0.1345
     28 N         137.5141  141.2157  162.7671 N.ar    1  UNL1       -0.2362
     29 C         137.9909  140.1287  163.6843 C.ar    1  UNL1        0.0892
     30 C         138.1133  140.0574  165.1776 C.ar    1  UNL1        0.0343
@<TRIPOS>BOND
     1    18    19    1
     2    19     1    1
     3     1     2   ar
     4     2     3   ar
     5     3     4   ar
     6     4     5   ar
     7     5     6   ar
     8     6     7   ar
     9     7    20    1
    10    20    22    1
    11    22    23   ar
    12    23    24   ar
    13    24    25   ar
    14    25    26   ar
    15    26    27   ar
    16    27    28   ar
    17    28    29   ar
    18    29    30   ar
    19     7     8   ar
    20     8     9   ar
    21     9    10   ar
    22    10    11    1
    23    11    12    2
    24    11    13    2
    25    11    14    1
    26    14    15    1
    27    14    16    1
    28    14    17    1
    29    10     1   ar
    30     8     3   ar
    31    30    22   ar
    32    29    25   ar
    33    20    21    1
@<TRIPOS>MOLECULE
*****
 30 33 0 0 0
SMALL
GASTEIGER

@<TRIPOS>ATOM
      1 C         138.8218  139.6131  166.7282 C.ar    1  UNL1        0.1572
      2 C         139.4527  139.9757  168.0398 C.ar    1  UNL1        0.0575
      3 C         140.7035  140.8033  168.0671 C.ar    1  UNL1        0.0888
      4 N         141.3344  141.1658  169.3787 N.ar    1  UNL1       -0.2238
      5 C         142.5852  141.9934  169.4060 C.ar    1  UNL1        0.2000
      6 N         143.2050  142.4583  168.1216 N.ar    1  UNL1       -0.2089
      7 C         142.5741  142.0957  166.8100 C.ar    1  UNL1        0.1353
      8 C         141.3234  141.2682  166.7827 C.ar    1  UNL1        0.0509
      9 C         140.6924  140.9056  165.4710 C.ar    1  UNL1        0.0257
     10 C         139.4417  140.0780  165.4438 C.ar    1  UNL1        0.1395
     11 S         138.8107  139.7154  164.1321 S.O2    1  UNL1        0.0083
     12 O         139.6916  138.5046  164.0430 O.2     1  UNL1       -0.1686
     13 O         137.9298  140.9262  164.2211 O.2     1  UNL1       -0.1686
     14 C         138.1797  139.3528  162.8205 C.3     1  UNL1        0.1152
     15 C         137.6256  140.7418  162.7031 C.3     1  UNL1        0.0240
     16 C         138.7338  137.9639  162.9379 C.3     1  UNL1        0.0240
     17 C         137.5488  138.9903  161.5089 C.3     1  UNL1        0.0240
     18 C         137.6627  137.2892  166.6498 C.3     1  UNL1        0.2525
     19 O         137.5710  138.7855  166.7008 O.3     1  UNL1       -0.4701
     20 N         143.1940  142.5607  165.5256 N.pl3   1  UNL1       -0.2978
     21 H         143.4202  143.5111  165.4040 H       1  UNL1        0.1536
     22 C         143.4691  141.5776  164.4266 C.ar    1  UNL1        0.0509
     23 C         144.2088  140.3071  164.7246 C.ar    1  UNL1        0.0153
     24 C         144.4839  139.3240  163.6257 C.ar    1  UNL1        0.0093
     25 C         144.0195  139.6114  162.2286 C.ar    1  UNL1        0.0486
     26 S         144.1441  138.8368  160.9502 S.2     1  UNL1       -0.0645
     27 C         143.4815  139.6285  159.8620 C.ar    1  UNL1        0.1345
     28 N         142.9474  140.8925  160.4680 N.ar    1  UNL1       -0.2362
     29 C         143.2799  140.8818  161.9306 C.ar    1  UNL1        0.0892
     30 C         143.0047  141.8650  163.0296 C.ar    1  UNL1        0.0343
@<TRIPOS>BOND
     1    18    19    1
     2    19     1    1
     3     1     2   ar
     4     2     3   ar
     5     3     4   ar
     6     4     5   ar
     7     5     6   ar
     8     6     7   ar
     9     7    20    1
    10    20    22    1
    11    22    23   ar
    12    23    24   ar
    13    24    25   ar
    14    25    26   ar
    15    26    27   ar
    16    27    28   ar
    17    28    29   ar
    18    29    30   ar
    19     7     8   ar
    20     8     9   ar
    21     9    10   ar
    22    10    11    1
    23    11    12    2
    24    11    13    2
    25    11    14    1
    26    14    15    1
    27    14    16    1
    28    14    17    1
    29    10     1   ar
    30     8     3   ar
    31    30    22   ar
    32    29    25   ar
    33    20    21    1
@<TRIPOS>MOLECULE
*****
 30 33 0 0 0
SMALL
GASTEIGER

@<TRIPOS>ATOM
      1 C         139.6806  140.3463  167.6020 C.ar    1  UNL1        0.1572
      2 C         138.8606  139.7454  166.4991 C.ar    1  UNL1        0.0575
      3 C         138.8798  140.3592  165.1305 C.ar    1  UNL1        0.0888
      4 N         138.0598  139.7584  164.0275 N.ar    1  UNL1       -0.2238
      5 C         138.0790  140.3722  162.6590 C.ar    1  UNL1        0.2000
      6 N         138.9181  141.5868  162.3935 N.ar    1  UNL1       -0.2089
      7 C         139.7381  142.1877  163.4964 C.ar    1  UNL1        0.1353
      8 C         139.7189  141.5739  164.8649 C.ar    1  UNL1        0.0509
      9 C         140.5389  142.1747  165.9680 C.ar    1  UNL1        0.0257
     10 C         140.5197  141.5609  167.3365 C.ar    1  UNL1        0.1395
     11 S         141.3397  142.1618  168.4396 S.O2    1  UNL1        0.0083
     12 O         142.4298  141.1670  168.1711 O.2     1  UNL1       -0.1686
     13 O         140.2496  143.1565  168.7080 O.2     1  UNL1       -0.1686
     14 C         142.1596  142.7626  169.5426 C.3     1  UNL1        0.1152
     15 C         140.9903  143.6086  169.9510 C.3     1  UNL1        0.0240
     16 C         143.3290  141.9166  169.1342 C.3     1  UNL1        0.0240
     17 C         142.9795  143.3635  170.6456 C.3     1  UNL1        0.0240
     18 C         138.6955  140.2325  170.0034 C.3     1  UNL1        0.2525
     19 O         139.6615  139.7325  168.9706 O.3     1  UNL1       -0.4701
     20 N         140.5772  143.4023  163.2309 N.pl3   1  UNL1       -0.2978
     21 H         140.8242  144.0016  163.9720 H       1  UNL1        0.1536
     22 C         141.0399  143.7040  161.8364 C.ar    1  UNL1        0.0509
     23 C         142.2675  143.0353  161.2923 C.ar    1  UNL1        0.0153
     24 C         142.7303  143.3369  159.8978 C.ar    1  UNL1        0.0093
     25 C         141.9655  144.3073  159.0472 C.ar    1  UNL1        0.0486
     26 S         142.1790  144.7991  157.6463 S.2     1  UNL1       -0.0645
     27 C         141.0834  145.7718  157.3245 C.ar    1  UNL1        0.1345
     28 N         140.1928  145.8811  158.5265 N.ar    1  UNL1       -0.2362
     29 C         140.7380  144.9760  159.5912 C.ar    1  UNL1        0.0892
     30 C         140.2751  144.6744  160.9858 C.ar    1  UNL1        0.0343
@<TRIPOS>BOND
     1    18    19    1
     2    19     1    1
     3     1     2   ar
     4     2     3   ar
     5     3     4   ar
     6     4     5   ar
     7     5     6   ar
     8     6     7   ar
     9     7    20    1
    10    20    22    1
    11    22    23   ar
    12    23    24   ar
    13    24    25   ar
    14    25    26   ar
    15    26    27   ar
    16    27    28   ar
    17    28    29   ar
    18    29    30   ar
    19     7     8   ar
    20     8     9   ar
    21     9    10   ar
    22    10    11    1
    23    11    12    2
    24    11    13    2
    25    11    14    1
    26    14    15    1
    27    14    16    1
    28    14    17    1
    29    10     1   ar
    30     8     3   ar
    31    30    22   ar
    32    29    25   ar
    33    20    21    1
