@<TRIPOS>MOLECULE
*****
 37 40 0 0 0
SMALL
GASTEIGER

@<TRIPOS>ATOM
      1 C         140.9669  141.6948  168.1408 C.3     1  UNL1        0.0705
      2 C         140.5956  142.4101  169.4059 C.3     1  UNL1        0.0082
      3 C         139.5348  141.8450  170.3034 C.3     1  UNL1        0.0005
      4 C         138.8454  140.5645  169.9359 C.3     1  UNL1        0.0005
      5 C         139.2167  139.8492  168.6708 C.3     1  UNL1        0.0095
      6 C         140.2774  140.4143  167.7733 C.3     1  UNL1        0.0840
      7 C         140.6487  139.6989  166.5082 C.2     1  UNL1        0.2262
      8 O         142.0157  139.0995  166.3591 O.2     1  UNL1       -0.2748
      9 N         139.6531  139.5829  165.3923 N.am    1  UNL1       -0.2804
     10 H         138.7559  139.9763  165.4902 H       1  UNL1        0.1550
     11 C         140.0244  138.8675  164.1273 C.ar    1  UNL1        0.1083
     12 C         140.7348  137.5496  164.0356 C.ar    1  UNL1        0.1377
     13 N         140.8999  137.2120  162.5834 N.ar    1  UNL1       -0.1651
     14 N         140.2916  138.3213  161.7776 N.ar    1  UNL1       -0.2302
     15 C         140.2344  138.3947  160.2805 C.3     1  UNL1        0.1553
     16 C         139.7505  139.3445  162.7317 C.ar    1  UNL1        0.2147
     17 S         139.0573  140.6206  162.3563 S.O2    1  UNL1        0.0748
     18 N         138.3640  141.8967  161.9807 N.3     1  UNL1       -0.2021
     19 O         140.3674  141.2024  161.9146 O.2     1  UNL1       -0.1517
     20 O         137.7472  140.0388  162.7979 O.2     1  UNL1       -0.1517
     21 H         139.0469  142.5589  161.6125 H       1  UNL1        0.1443
     22 H         137.9147  142.2949  162.8053 H       1  UNL1        0.1443
     23 C         142.0275  142.2599  167.2433 C.2     1  UNL1        0.1731
     24 O         143.4721  142.1615  167.6351 O.2     1  UNL1       -0.2913
     25 C         140.8761  144.2504  163.3753 C.ar    1  UNL1        0.0194
     26 C         142.2775  143.7545  163.5754 C.ar    1  UNL1        0.0016
     27 C         142.6613  143.0910  164.8647 C.ar    1  UNL1        0.0029
     28 C         141.6437  142.9234  165.9539 C.ar    1  UNL1        0.0347
     29 C         140.2423  143.4193  165.7538 C.ar    1  UNL1        0.0029
     30 C         139.8585  144.0828  164.4645 C.ar    1  UNL1        0.0016
     31 C         140.6956  145.5698  158.2657 C.3     1  UNL1        0.0515
     32 C         140.4093  145.5204  159.7373 C.ar    1  UNL1        0.0535
     33 C         141.0881  144.6332  160.7383 C.ar    1  UNL1        0.0349
     34 C         140.4922  144.9140  162.0859 C.ar    1  UNL1        0.1018
     35 N         139.4451  145.9747  161.9178 N.ar    1  UNL1       -0.1730
     36 N         139.3938  146.3495  160.4663 N.ar    1  UNL1       -0.2798
     37 H         138.7982  147.0217  160.0629 H       1  UNL1        0.1886
@<TRIPOS>BOND
     1    31    32    1
     2    32    33   ar
     3    33    34   ar
     4    34    25    1
     5    25    26   ar
     6    26    27   ar
     7    27    28   ar
     8    28    23    1
     9    23    24    2
    10     1    23    1
    11     1     2    1
    12     2     3    1
    13     3     4    1
    14     4     5    1
    15     5     6    1
    16     6     7    1
    17     7     8    2
    18     7     9   am
    19     9    11    1
    20    11    12   ar
    21    12    13   ar
    22    13    14   ar
    23    14    15    1
    24    14    16   ar
    25    16    17    1
    26    17    18    1
    27    17    19    2
    28    17    20    2
    29    28    29   ar
    30    29    30   ar
    31    34    35   ar
    32    35    36   ar
    33    36    32   ar
    34    30    25   ar
    35     6     1    1
    36    16    11   ar
    37     9    10    1
    38    18    21    1
    39    18    22    1
    40    36    37    1
@<TRIPOS>MOLECULE
*****
 37 40 0 0 0
SMALL
GASTEIGER

@<TRIPOS>ATOM
      1 C         140.1931  139.9475  167.3950 C.3     1  UNL1        0.0705
      2 C         140.0007  140.2293  168.8557 C.3     1  UNL1        0.0082
      3 C         141.1358  140.0246  169.8148 C.3     1  UNL1        0.0005
      4 C         142.4631  139.5381  169.3132 C.3     1  UNL1        0.0005
      5 C         142.6554  139.2563  167.8525 C.3     1  UNL1        0.0095
      6 C         141.5204  139.4610  166.8934 C.3     1  UNL1        0.0840
      7 C         141.7128  139.1792  165.4327 C.2     1  UNL1        0.2262
      8 O         141.4207  137.8125  164.8878 O.2     1  UNL1       -0.2748
      9 N         142.1971  140.2640  164.5170 N.am    1  UNL1       -0.2804
     10 H         142.3888  141.1609  164.8747 H       1  UNL1        0.1550
     11 C         142.3895  139.9822  163.0564 C.ar    1  UNL1        0.1083
     12 C         141.4194  139.2705  162.1605 C.ar    1  UNL1        0.1377
     13 N         142.0160  139.2110  160.7855 N.ar    1  UNL1       -0.1651
     14 N         143.3548  139.8860  160.8316 N.ar    1  UNL1       -0.2302
     15 C         144.2973  140.0547  159.6770 C.3     1  UNL1        0.1553
     16 C         143.5856  140.3626  162.2350 C.ar    1  UNL1        0.2147
     17 S         144.7994  141.0916  162.7302 S.O2    1  UNL1        0.0748
     18 N         146.0133  141.8205  163.2254 N.3     1  UNL1       -0.2021
     19 O         145.1918  139.8898  163.5376 O.2     1  UNL1       -0.1517
     20 O         144.4071  142.2932  161.9228 O.2     1  UNL1       -0.1517
     21 H         146.5399  141.2153  163.8553 H       1  UNL1        0.1443
     22 H         145.7246  142.6618  163.7246 H       1  UNL1        0.1443
     23 C         139.0581  140.1521  166.4359 C.2     1  UNL1        0.1731
     24 O         137.8248  139.3049  166.5416 O.2     1  UNL1       -0.2913
     25 C         139.3531  143.3078  163.2414 C.ar    1  UNL1        0.0194
     26 C         139.8682  143.5878  164.6220 C.ar    1  UNL1        0.0016
     27 C         139.7699  142.5359  165.6868 C.ar    1  UNL1        0.0029
     28 C         139.1564  141.2040  165.3710 C.ar    1  UNL1        0.0347
     29 C         138.6413  140.9240  163.9904 C.ar    1  UNL1        0.0029
     30 C         138.7397  141.9759  162.9255 C.ar    1  UNL1        0.0016
     31 C         140.5444  145.8046  158.7439 C.3     1  UNL1        0.0515
     32 C         139.9990  145.5073  160.1092 C.ar    1  UNL1        0.0535
     33 C         140.1504  144.2159  160.8571 C.ar    1  UNL1        0.0349
     34 C         139.4514  144.3596  162.1765 C.ar    1  UNL1        0.1018
     35 N         138.8681  145.7399  162.2440 N.ar    1  UNL1       -0.1730
     36 N         139.2065  146.4492  160.9664 N.ar    1  UNL1       -0.2798
     37 H         138.9529  147.3711  160.7317 H       1  UNL1        0.1886
@<TRIPOS>BOND
     1    31    32    1
     2    32    33   ar
     3    33    34   ar
     4    34    25    1
     5    25    26   ar
     6    26    27   ar
     7    27    28   ar
     8    28    23    1
     9    23    24    2
    10     1    23    1
    11     1     2    1
    12     2     3    1
    13     3     4    1
    14     4     5    1
    15     5     6    1
    16     6     7    1
    17     7     8    2
    18     7     9   am
    19     9    11    1
    20    11    12   ar
    21    12    13   ar
    22    13    14   ar
    23    14    15    1
    24    14    16   ar
    25    16    17    1
    26    17    18    1
    27    17    19    2
    28    17    20    2
    29    28    29   ar
    30    29    30   ar
    31    34    35   ar
    32    35    36   ar
    33    36    32   ar
    34    30    25   ar
    35     6     1    1
    36    16    11   ar
    37     9    10    1
    38    18    21    1
    39    18    22    1
    40    36    37    1
@<TRIPOS>MOLECULE
*****
 37 40 0 0 0
SMALL
GASTEIGER

@<TRIPOS>ATOM
      1 C         140.9816  140.4532  168.7084 C.3     1  UNL1        0.0705
      2 C         141.7179  139.5699  169.6716 C.3     1  UNL1        0.0082
      3 C         142.9966  140.0436  170.2966 C.3     1  UNL1        0.0005
      4 C         143.5389  141.4006  169.9586 C.3     1  UNL1        0.0005
      5 C         142.8027  142.2840  168.9954 C.3     1  UNL1        0.0095
      6 C         141.5241  141.8103  168.3704 C.3     1  UNL1        0.0840
      7 C         140.7878  142.6937  167.4073 C.2     1  UNL1        0.2262
      8 O         139.7447  143.6468  167.9108 O.2     1  UNL1       -0.2748
      9 N         141.0946  142.6239  165.9407 N.am    1  UNL1       -0.2804
     10 H         141.7792  141.9983  165.6102 H       1  UNL1        0.1550
     11 C         140.3583  143.5072  164.9775 C.ar    1  UNL1        0.1083
     12 C         138.8879  143.8027  164.9995 C.ar    1  UNL1        0.1377
     13 N         138.5840  144.7283  163.8589 N.ar    1  UNL1       -0.1651
     14 N         139.8666  145.0049  163.1320 N.ar    1  UNL1       -0.2302
     15 C         140.0249  145.8820  161.9255 C.3     1  UNL1        0.1553
     16 C         140.9632  144.2502  163.8234 C.ar    1  UNL1        0.2147
     17 S         142.4105  144.2402  163.4296 S.O2    1  UNL1        0.0748
     18 N         143.8580  144.2304  163.0360 N.3     1  UNL1       -0.2021
     19 O         142.5857  145.5996  164.0392 O.2     1  UNL1       -0.1517
     20 O         142.2355  142.8810  162.8202 O.2     1  UNL1       -0.1517
     21 H         144.2983  145.0997  163.3375 H       1  UNL1        0.1443
     22 H         143.9341  144.1445  162.0224 H       1  UNL1        0.1443
     23 C         139.7030  139.9796  168.0834 C.2     1  UNL1        0.1731
     24 O         138.5093  139.6906  168.9445 O.2     1  UNL1       -0.2913
     25 C         139.4482  139.4254  163.6249 C.ar    1  UNL1        0.0194
     26 C         138.3062  140.0511  164.3694 C.ar    1  UNL1        0.0016
     27 C         138.3911  140.2358  165.8555 C.ar    1  UNL1        0.0029
     28 C         139.6181  139.7948  166.5972 C.ar    1  UNL1        0.0347
     29 C         140.7601  139.1692  165.8527 C.ar    1  UNL1        0.0029
     30 C         140.6752  138.9845  164.3666 C.ar    1  UNL1        0.0016
     31 C         138.4671  140.2756  158.5067 C.3     1  UNL1        0.0515
     32 C         138.9123  139.6315  159.7861 C.ar    1  UNL1        0.0535
     33 C         138.7951  140.2243  161.1590 C.ar    1  UNL1        0.0349
     34 C         139.3633  139.2407  162.1387 C.ar    1  UNL1        0.1018
     35 N         139.8316  138.0400  161.3713 N.ar    1  UNL1       -0.1730
     36 N         139.5529  138.2815  159.9173 N.ar    1  UNL1       -0.2798
     37 H         139.7549  137.6626  159.1788 H       1  UNL1        0.1886
@<TRIPOS>BOND
     1    31    32    1
     2    32    33   ar
     3    33    34   ar
     4    34    25    1
     5    25    26   ar
     6    26    27   ar
     7    27    28   ar
     8    28    23    1
     9    23    24    2
    10     1    23    1
    11     1     2    1
    12     2     3    1
    13     3     4    1
    14     4     5    1
    15     5     6    1
    16     6     7    1
    17     7     8    2
    18     7     9   am
    19     9    11    1
    20    11    12   ar
    21    12    13   ar
    22    13    14   ar
    23    14    15    1
    24    14    16   ar
    25    16    17    1
    26    17    18    1
    27    17    19    2
    28    17    20    2
    29    28    29   ar
    30    29    30   ar
    31    34    35   ar
    32    35    36   ar
    33    36    32   ar
    34    30    25   ar
    35     6     1    1
    36    16    11   ar
    37     9    10    1
    38    18    21    1
    39    18    22    1
    40    36    37    1
@<TRIPOS>MOLECULE
*****
 37 40 0 0 0
SMALL
GASTEIGER

@<TRIPOS>ATOM
      1 C         140.0128  140.1410  167.7332 C.3     1  UNL1        0.0705
      2 C         139.3871  140.2385  169.0930 C.3     1  UNL1        0.0082
      3 C         140.2549  140.3101  170.3144 C.3     1  UNL1        0.0005
      4 C         141.7482  140.2841  170.1761 C.3     1  UNL1        0.0005
      5 C         142.3739  140.1865  168.8163 C.3     1  UNL1        0.0095
      6 C         141.5062  140.1149  167.5949 C.3     1  UNL1        0.0840
      7 C         142.1319  140.0173  166.2351 C.2     1  UNL1        0.2262
      8 O         142.7910  141.2187  165.6248 O.2     1  UNL1       -0.2748
      9 N         142.0984  138.7185  165.4855 N.am    1  UNL1       -0.2804
     10 H         141.6658  137.9301  165.8861 H       1  UNL1        0.1550
     11 C         142.7240  138.6209  164.1258 C.ar    1  UNL1        0.1083
     12 C         144.1376  138.9822  163.7776 C.ar    1  UNL1        0.1377
     13 N         144.3332  138.7295  162.3121 N.ar    1  UNL1       -0.1651
     14 N         143.0405  138.2120  161.7544 N.ar    1  UNL1       -0.2302
     15 C         142.7868  137.8289  160.3265 C.3     1  UNL1        0.1553
     16 C         142.0460  138.1449  162.8753 C.ar    1  UNL1        0.2147
     17 S         140.6231  137.6829  162.7651 S.O2    1  UNL1        0.0748
     18 N         139.2003  137.2210  162.6548 N.3     1  UNL1       -0.2021
     19 O         140.3103  138.8565  161.8848 O.2     1  UNL1       -0.1517
     20 O         140.9360  136.5094  163.6453 O.2     1  UNL1       -0.1517
     21 H         138.6772  137.8687  162.0655 H       1  UNL1        0.1443
     22 H         138.7796  137.1909  163.5836 H       1  UNL1        0.1443
     23 C         139.1451  140.0694  166.5117 C.2     1  UNL1        0.1731
     24 O         138.1857  138.9293  166.3390 O.2     1  UNL1       -0.2913
     25 C         139.4199  143.2749  163.3655 C.ar    1  UNL1        0.0194
     26 C         138.9722  141.8931  162.9912 C.ar    1  UNL1        0.0016
     27 C         138.8806  140.8247  164.0399 C.ar    1  UNL1        0.0029
     28 C         139.2367  141.1380  165.4630 C.ar    1  UNL1        0.0347
     29 C         139.6844  142.5198  165.8373 C.ar    1  UNL1        0.0029
     30 C         139.7760  143.5882  164.7885 C.ar    1  UNL1        0.0016
     31 C         140.6763  145.8822  158.9490 C.3     1  UNL1        0.0515
     32 C         140.0891  145.5419  160.2867 C.ar    1  UNL1        0.0535
     33 C         140.2716  144.2501  161.0269 C.ar    1  UNL1        0.0349
     34 C         139.5115  144.3435  162.3167 C.ar    1  UNL1        0.1018
     35 N         138.8591  145.6930  162.3736 N.ar    1  UNL1       -0.1730
     36 N         139.2161  146.4337  161.1190 N.ar    1  UNL1       -0.2798
     37 H         138.9279  147.3450  160.8832 H       1  UNL1        0.1886
@<TRIPOS>BOND
     1    31    32    1
     2    32    33   ar
     3    33    34   ar
     4    34    25    1
     5    25    26   ar
     6    26    27   ar
     7    27    28   ar
     8    28    23    1
     9    23    24    2
    10     1    23    1
    11     1     2    1
    12     2     3    1
    13     3     4    1
    14     4     5    1
    15     5     6    1
    16     6     7    1
    17     7     8    2
    18     7     9   am
    19     9    11    1
    20    11    12   ar
    21    12    13   ar
    22    13    14   ar
    23    14    15    1
    24    14    16   ar
    25    16    17    1
    26    17    18    1
    27    17    19    2
    28    17    20    2
    29    28    29   ar
    30    29    30   ar
    31    34    35   ar
    32    35    36   ar
    33    36    32   ar
    34    30    25   ar
    35     6     1    1
    36    16    11   ar
    37     9    10    1
    38    18    21    1
    39    18    22    1
    40    36    37    1
@<TRIPOS>MOLECULE
*****
 37 40 0 0 0
SMALL
GASTEIGER

@<TRIPOS>ATOM
      1 C         139.6190  140.4504  166.8929 C.3     1  UNL1        0.0705
      2 C         139.9992  139.9123  168.2405 C.3     1  UNL1        0.0082
      3 C         140.7047  140.7937  169.2282 C.3     1  UNL1        0.0005
      4 C         141.0299  142.2131  168.8684 C.3     1  UNL1        0.0005
      5 C         140.6497  142.7512  167.5208 C.3     1  UNL1        0.0095
      6 C         139.9443  141.8699  166.5331 C.3     1  UNL1        0.0840
      7 C         139.5641  142.4080  165.1855 C.2     1  UNL1        0.2262
      8 O         138.1531  142.8444  164.9231 O.2     1  UNL1       -0.2748
      9 N         140.5947  142.5096  164.1005 N.am    1  UNL1       -0.2804
     10 H         141.5207  142.2232  164.2728 H       1  UNL1        0.1550
     11 C         140.2145  143.0477  162.7529 C.ar    1  UNL1        0.1083
     12 C         138.9954  142.6703  161.9648 C.ar    1  UNL1        0.1377
     13 N         139.0141  143.4470  160.6817 N.ar    1  UNL1       -0.1651
     14 N         140.2448  144.3045  160.6768 N.ar    1  UNL1       -0.2302
     15 C         140.6606  145.2438  159.5838 C.3     1  UNL1        0.1553
     16 C         140.9867  144.0577  161.9569 C.ar    1  UNL1        0.2147
     17 S         142.2747  144.7069  162.3687 S.O2    1  UNL1        0.0748
     18 N         143.5627  145.3562  162.7804 N.3     1  UNL1       -0.2021
     19 O         143.0024  143.9364  161.3073 O.2     1  UNL1       -0.1517
     20 O         141.5470  145.4774  163.4301 O.2     1  UNL1       -0.1517
     21 H         144.3212  145.0093  162.1932 H       1  UNL1        0.1443
     22 H         143.7591  145.1334  163.7563 H       1  UNL1        0.1443
     23 C         138.9135  139.5691  165.9052 C.2     1  UNL1        0.1731
     24 O         137.5630  139.0052  166.2340 O.2     1  UNL1       -0.2913
     25 C         140.8485  138.6170  161.9557 C.ar    1  UNL1        0.0194
     26 C         139.3819  138.9257  162.0172 C.ar    1  UNL1        0.0016
     27 C         138.7370  139.2430  163.3337 C.ar    1  UNL1        0.0029
     28 C         139.5586  139.2517  164.5887 C.ar    1  UNL1        0.0347
     29 C         141.0251  138.9430  164.5271 C.ar    1  UNL1        0.0029
     30 C         141.6701  138.6257  163.2106 C.ar    1  UNL1        0.0016
     31 C         141.7709  138.2777  156.7676 C.3     1  UNL1        0.0515
     32 C         141.9175  138.1436  158.2544 C.ar    1  UNL1        0.0535
     33 C         140.9527  138.6509  159.2848 C.ar    1  UNL1        0.0349
     34 C         141.4936  138.2996  160.6391 C.ar    1  UNL1        0.1018
     35 N         142.7927  137.5751  160.4457 N.ar    1  UNL1       -0.1730
     36 N         143.0547  137.4787  158.9719 N.ar    1  UNL1       -0.2798
     37 H         143.8359  137.0537  158.5496 H       1  UNL1        0.1886
@<TRIPOS>BOND
     1    31    32    1
     2    32    33   ar
     3    33    34   ar
     4    34    25    1
     5    25    26   ar
     6    26    27   ar
     7    27    28   ar
     8    28    23    1
     9    23    24    2
    10     1    23    1
    11     1     2    1
    12     2     3    1
    13     3     4    1
    14     4     5    1
    15     5     6    1
    16     6     7    1
    17     7     8    2
    18     7     9   am
    19     9    11    1
    20    11    12   ar
    21    12    13   ar
    22    13    14   ar
    23    14    15    1
    24    14    16   ar
    25    16    17    1
    26    17    18    1
    27    17    19    2
    28    17    20    2
    29    28    29   ar
    30    29    30   ar
    31    34    35   ar
    32    35    36   ar
    33    36    32   ar
    34    30    25   ar
    35     6     1    1
    36    16    11   ar
    37     9    10    1
    38    18    21    1
    39    18    22    1
    40    36    37    1
@<TRIPOS>MOLECULE
*****
 37 40 0 0 0
SMALL
GASTEIGER

@<TRIPOS>ATOM
      1 C         143.8330  140.0460  164.5687 C.3     1  UNL1        0.0705
      2 C         144.0873  138.8254  165.4027 C.3     1  UNL1        0.0082
      3 C         143.3393  138.6258  166.6875 C.3     1  UNL1        0.0005
      4 C         142.3371  139.6466  167.1383 C.3     1  UNL1        0.0005
      5 C         142.0828  140.8672  166.3043 C.3     1  UNL1        0.0095
      6 C         142.8307  141.0669  165.0195 C.3     1  UNL1        0.0840
      7 C         142.5764  142.2874  164.1855 C.2     1  UNL1        0.2262
      8 O         143.3193  143.5590  164.4709 O.2     1  UNL1       -0.2748
      9 N         141.5792  142.2365  163.0662 N.am    1  UNL1       -0.2804
     10 H         141.0916  141.4020  162.8789 H       1  UNL1        0.1550
     11 C         141.3249  143.4571  162.2322 C.ar    1  UNL1        0.1083
     12 C         142.1683  143.9339  161.0870 C.ar    1  UNL1        0.1377
     13 N         141.5471  145.1866  160.5440 N.ar    1  UNL1       -0.1651
     14 N         140.3198  145.4840  161.3535 N.ar    1  UNL1       -0.2302
     15 C         139.3927  146.6463  161.1546 C.3     1  UNL1        0.1553
     16 C         140.1825  144.4151  162.3968 C.ar    1  UNL1        0.2147
     17 S         139.0938  144.3208  163.4244 S.O2    1  UNL1        0.0748
     18 N         138.0052  144.2265  164.4521 N.3     1  UNL1       -0.2021
     19 O         140.0628  144.7411  164.4896 O.2     1  UNL1       -0.1517
     20 O         138.1249  143.9006  162.3594 O.2     1  UNL1       -0.1517
     21 H         138.3798  144.4746  165.3679 H       1  UNL1        0.1443
     22 H         137.6449  143.2727  164.4792 H       1  UNL1        0.1443
     23 C         144.5809  140.2456  163.2839 C.2     1  UNL1        0.1731
     24 O         145.8643  141.0221  163.2761 O.2     1  UNL1       -0.2913
     25 C         142.9746  138.5153  159.4531 C.ar    1  UNL1        0.0194
     26 C         143.1757  137.6321  160.6486 C.ar    1  UNL1        0.0016
     27 C         143.7111  138.2089  161.9256 C.ar    1  UNL1        0.0029
     28 C         144.0455  139.6689  162.0069 C.ar    1  UNL1        0.0347
     29 C         143.8444  140.5521  160.8113 C.ar    1  UNL1        0.0029
     30 C         143.3090  139.9753  159.5344 C.ar    1  UNL1        0.0016
     31 C         139.6759  137.0503  155.5990 C.3     1  UNL1        0.0515
     32 C         140.9229  137.2651  156.4045 C.ar    1  UNL1        0.0535
     33 C         141.0044  137.9460  157.7386 C.ar    1  UNL1        0.0349
     34 C         142.4392  137.9385  158.1760 C.ar    1  UNL1        0.1018
     35 N         143.2445  137.2531  157.1123 N.ar    1  UNL1       -0.1730
     36 N         142.3074  136.8369  156.0174 N.ar    1  UNL1       -0.2798
     37 H         142.5572  136.3655  155.1900 H       1  UNL1        0.1886
@<TRIPOS>BOND
     1    31    32    1
     2    32    33   ar
     3    33    34   ar
     4    34    25    1
     5    25    26   ar
     6    26    27   ar
     7    27    28   ar
     8    28    23    1
     9    23    24    2
    10     1    23    1
    11     1     2    1
    12     2     3    1
    13     3     4    1
    14     4     5    1
    15     5     6    1
    16     6     7    1
    17     7     8    2
    18     7     9   am
    19     9    11    1
    20    11    12   ar
    21    12    13   ar
    22    13    14   ar
    23    14    15    1
    24    14    16   ar
    25    16    17    1
    26    17    18    1
    27    17    19    2
    28    17    20    2
    29    28    29   ar
    30    29    30   ar
    31    34    35   ar
    32    35    36   ar
    33    36    32   ar
    34    30    25   ar
    35     6     1    1
    36    16    11   ar
    37     9    10    1
    38    18    21    1
    39    18    22    1
    40    36    37    1
@<TRIPOS>MOLECULE
*****
 37 40 0 0 0
SMALL
GASTEIGER

@<TRIPOS>ATOM
      1 C         142.2635  140.7648  167.3457 C.3     1  UNL1        0.0705
      2 C         142.9449  141.5210  168.4474 C.3     1  UNL1        0.0082
      3 C         142.1996  142.5826  169.2009 C.3     1  UNL1        0.0005
      4 C         140.7729  142.8879  168.8527 C.3     1  UNL1        0.0005
      5 C         140.0915  142.1316  167.7510 C.3     1  UNL1        0.0095
      6 C         140.8367  141.0701  166.9976 C.3     1  UNL1        0.0840
      7 C         140.1552  140.3139  165.8959 C.2     1  UNL1        0.2262
      8 O         139.5911  138.9493  166.1603 O.2     1  UNL1       -0.2748
      9 N         140.0378  140.9222  164.5298 N.am    1  UNL1       -0.2804
     10 H         140.4081  141.8177  164.3563 H       1  UNL1        0.1550
     11 C         139.3564  140.1659  163.4281 C.ar    1  UNL1        0.1083
     12 C         139.4309  138.6856  163.1977 C.ar    1  UNL1        0.1377
     13 N         138.6013  138.3620  161.9905 N.ar    1  UNL1       -0.1651
     14 N         138.0141  139.6424  161.4749 N.ar    1  UNL1       -0.2302
     15 C         137.1176  139.7832  160.2806 C.3     1  UNL1        0.1553
     16 C         138.4808  140.7572  162.3634 C.ar    1  UNL1        0.2147
     17 S         138.1328  142.2086  162.2134 S.O2    1  UNL1        0.0748
     18 N         137.7849  143.6600  162.0635 N.3     1  UNL1       -0.2021
     19 O         137.0094  142.0405  163.1930 O.2     1  UNL1       -0.1517
     20 O         139.2562  142.3767  161.2339 O.2     1  UNL1       -0.1517
     21 H         136.9857  143.8812  162.6575 H       1  UNL1        0.1443
     22 H         137.5492  143.8544  161.0903 H       1  UNL1        0.1443
     23 C         143.0087  139.7033  166.5923 C.2     1  UNL1        0.1731
     24 O         143.5355  138.4996  167.3159 O.2     1  UNL1       -0.2913
     25 C         143.6641  140.1296  162.1607 C.ar    1  UNL1        0.0194
     26 C         143.2160  138.8160  162.7296 C.ar    1  UNL1        0.0016
     27 C         142.9975  138.6739  164.2068 C.ar    1  UNL1        0.0029
     28 C         143.2272  139.8454  165.1150 C.ar    1  UNL1        0.0347
     29 C         143.6753  141.1590  164.5461 C.ar    1  UNL1        0.0029
     30 C         143.8938  141.3011  163.0690 C.ar    1  UNL1        0.0016
     31 C         144.4163  142.2293  157.3746 C.3     1  UNL1        0.0515
     32 C         144.2283  141.2369  158.4836 C.ar    1  UNL1        0.0535
     33 C         144.0264  141.5629  159.9337 C.ar    1  UNL1        0.0349
     34 C         143.8826  140.2717  160.6835 C.ar    1  UNL1        0.1018
     35 N         143.9957  139.1477  159.6967 N.ar    1  UNL1       -0.1730
     36 N         144.2093  139.7441  158.3371 N.ar    1  UNL1       -0.2798
     37 H         144.3180  139.2437  157.4963 H       1  UNL1        0.1886
@<TRIPOS>BOND
     1    31    32    1
     2    32    33   ar
     3    33    34   ar
     4    34    25    1
     5    25    26   ar
     6    26    27   ar
     7    27    28   ar
     8    28    23    1
     9    23    24    2
    10     1    23    1
    11     1     2    1
    12     2     3    1
    13     3     4    1
    14     4     5    1
    15     5     6    1
    16     6     7    1
    17     7     8    2
    18     7     9   am
    19     9    11    1
    20    11    12   ar
    21    12    13   ar
    22    13    14   ar
    23    14    15    1
    24    14    16   ar
    25    16    17    1
    26    17    18    1
    27    17    19    2
    28    17    20    2
    29    28    29   ar
    30    29    30   ar
    31    34    35   ar
    32    35    36   ar
    33    36    32   ar
    34    30    25   ar
    35     6     1    1
    36    16    11   ar
    37     9    10    1
    38    18    21    1
    39    18    22    1
    40    36    37    1
@<TRIPOS>MOLECULE
*****
 37 40 0 0 0
SMALL
GASTEIGER

@<TRIPOS>ATOM
      1 C         139.9247  139.1991  158.8303 C.3     1  UNL1        0.0705
      2 C         139.8805  137.9494  158.0019 C.3     1  UNL1        0.0082
      3 C         141.1056  137.4938  157.2658 C.3     1  UNL1        0.0005
      4 C         142.3747  138.2878  157.3582 C.3     1  UNL1        0.0005
      5 C         142.4190  139.5375  158.1866 C.3     1  UNL1        0.0095
      6 C         141.1940  139.9932  158.9227 C.3     1  UNL1        0.0840
      7 C         141.2382  141.2429  159.7511 C.2     1  UNL1        0.2262
      8 O         140.8873  142.5644  159.1342 O.2     1  UNL1       -0.2748
      9 N         141.6333  141.1711  161.1963 N.am    1  UNL1       -0.2804
     10 H         141.8636  140.3037  161.6012 H       1  UNL1        0.1550
     11 C         141.6775  142.4208  162.0247 C.ar    1  UNL1        0.1083
     12 C         140.4986  143.2620  162.4152 C.ar    1  UNL1        0.1377
     13 N         141.0009  144.4098  163.2399 N.ar    1  UNL1       -0.1651
     14 N         142.4903  144.2780  163.3592 N.ar    1  UNL1       -0.2302
     15 C         143.4015  145.2116  164.0995 C.3     1  UNL1        0.1553
     16 C         142.9085  143.0488  162.6082 C.ar    1  UNL1        0.2147
     17 S         144.3114  142.5373  162.4656 S.O2    1  UNL1        0.0748
     18 N         145.7143  142.0259  162.3230 N.3     1  UNL1       -0.2021
     19 O         144.5691  143.5454  161.3851 O.2     1  UNL1       -0.1517
     20 O         144.0537  141.5293  163.5460 O.2     1  UNL1       -0.1517
     21 H         146.1975  142.5563  161.5980 H       1  UNL1        0.1443
     22 H         145.6920  141.0394  162.0648 H       1  UNL1        0.1443
     23 C         138.6997  139.6547  159.5664 C.2     1  UNL1        0.1731
     24 O         137.5211  140.1849  158.8050 O.2     1  UNL1       -0.2913
     25 C         138.5607  139.4313  164.0587 C.ar    1  UNL1        0.0194
     26 C         137.9247  140.5874  163.3452 C.ar    1  UNL1        0.0016
     27 C         137.9710  140.6618  161.8478 C.ar    1  UNL1        0.0029
     28 C         138.6534  139.5802  161.0638 C.ar    1  UNL1        0.0347
     29 C         139.2894  138.4242  161.7773 C.ar    1  UNL1        0.0029
     30 C         139.2431  138.3498  163.2747 C.ar    1  UNL1        0.0016
     31 C         139.5828  140.3082  169.1643 C.3     1  UNL1        0.0515
     32 C         138.9842  139.7599  167.9029 C.ar    1  UNL1        0.0535
     33 C         139.3626  140.1506  166.5051 C.ar    1  UNL1        0.0349
     34 C         138.5143  139.3569  165.5561 C.ar    1  UNL1        0.1018
     35 N         137.6117  138.4756  166.3676 N.ar    1  UNL1       -0.1730
     36 N         137.9020  138.7246  167.8180 N.ar    1  UNL1       -0.2798
     37 H         137.4599  138.2857  168.5803 H       1  UNL1        0.1886
@<TRIPOS>BOND
     1    31    32    1
     2    32    33   ar
     3    33    34   ar
     4    34    25    1
     5    25    26   ar
     6    26    27   ar
     7    27    28   ar
     8    28    23    1
     9    23    24    2
    10     1    23    1
    11     1     2    1
    12     2     3    1
    13     3     4    1
    14     4     5    1
    15     5     6    1
    16     6     7    1
    17     7     8    2
    18     7     9   am
    19     9    11    1
    20    11    12   ar
    21    12    13   ar
    22    13    14   ar
    23    14    15    1
    24    14    16   ar
    25    16    17    1
    26    17    18    1
    27    17    19    2
    28    17    20    2
    29    28    29   ar
    30    29    30   ar
    31    34    35   ar
    32    35    36   ar
    33    36    32   ar
    34    30    25   ar
    35     6     1    1
    36    16    11   ar
    37     9    10    1
    38    18    21    1
    39    18    22    1
    40    36    37    1
@<TRIPOS>MOLECULE
*****
 37 40 0 0 0
SMALL
GASTEIGER

@<TRIPOS>ATOM
      1 C         139.4322  142.1794  163.3512 C.3     1  UNL1        0.0705
      2 C         138.4502  142.8955  162.4721 C.3     1  UNL1        0.0082
      3 C         137.8317  144.1825  162.9317 C.3     1  UNL1        0.0005
      4 C         138.1953  144.7533  164.2704 C.3     1  UNL1        0.0005
      5 C         139.1773  144.0371  165.1495 C.3     1  UNL1        0.0095
      6 C         139.7957  142.7502  164.6899 C.3     1  UNL1        0.0840
      7 C         140.7777  142.0340  165.5690 C.2     1  UNL1        0.2262
      8 O         142.1698  142.5693  165.7297 O.2     1  UNL1       -0.2748
      9 N         140.3678  140.7827  166.2873 N.am    1  UNL1       -0.2804
     10 H         139.4541  140.4314  166.1818 H       1  UNL1        0.1550
     11 C         141.3498  140.0665  167.1664 C.ar    1  UNL1        0.1083
     12 C         142.5093  139.2372  166.6999 C.ar    1  UNL1        0.1377
     13 N         143.2208  138.7120  167.9115 N.ar    1  UNL1       -0.1651
     14 N         142.5010  139.2169  169.1268 N.ar    1  UNL1       -0.2302
     15 C         142.8724  138.9342  170.5524 C.3     1  UNL1        0.1553
     16 C         141.3447  140.0540  168.6663 C.ar    1  UNL1        0.2147
     17 S         140.3566  140.7554  169.5505 S.O2    1  UNL1        0.0748
     18 N         139.3685  141.4567  170.4348 N.3     1  UNL1       -0.2021
     19 O         139.3463  139.6820  169.2731 O.2     1  UNL1       -0.1517
     20 O         141.3669  141.8287  169.8280 O.2     1  UNL1       -0.1517
     21 H         138.4969  140.9275  170.4573 H       1  UNL1        0.1443
     22 H         139.1892  142.3920  170.0693 H       1  UNL1        0.1443
     23 C         140.0507  140.8924  162.8916 C.2     1  UNL1        0.1731
     24 O         139.6651  139.5991  163.5463 O.2     1  UNL1       -0.2913
     25 C         143.0631  140.9113  159.5487 C.ar    1  UNL1        0.0194
     26 C         141.8928  139.9744  159.4984 C.ar    1  UNL1        0.0016
     27 C         140.8887  139.9681  160.6127 C.ar    1  UNL1        0.0029
     28 C         141.0549  140.8988  161.7773 C.ar    1  UNL1        0.0347
     29 C         142.2252  141.8356  161.8276 C.ar    1  UNL1        0.0029
     30 C         143.2293  141.8419  160.7133 C.ar    1  UNL1        0.0016
     31 C         146.7520  142.5021  156.1219 C.3     1  UNL1        0.0515
     32 C         145.7629  141.6489  156.8592 C.ar    1  UNL1        0.0535
     33 C         144.9008  142.0886  158.0053 C.ar    1  UNL1        0.0349
     34 C         144.0673  140.9177  158.4343 C.ar    1  UNL1        0.1018
     35 N         144.4142  139.7542  157.5535 N.ar    1  UNL1       -0.1730
     36 N         145.4621  140.2061  156.5800 N.ar    1  UNL1       -0.2798
     37 H         145.8793  139.6528  155.8807 H       1  UNL1        0.1886
@<TRIPOS>BOND
     1    31    32    1
     2    32    33   ar
     3    33    34   ar
     4    34    25    1
     5    25    26   ar
     6    26    27   ar
     7    27    28   ar
     8    28    23    1
     9    23    24    2
    10     1    23    1
    11     1     2    1
    12     2     3    1
    13     3     4    1
    14     4     5    1
    15     5     6    1
    16     6     7    1
    17     7     8    2
    18     7     9   am
    19     9    11    1
    20    11    12   ar
    21    12    13   ar
    22    13    14   ar
    23    14    15    1
    24    14    16   ar
    25    16    17    1
    26    17    18    1
    27    17    19    2
    28    17    20    2
    29    28    29   ar
    30    29    30   ar
    31    34    35   ar
    32    35    36   ar
    33    36    32   ar
    34    30    25   ar
    35     6     1    1
    36    16    11   ar
    37     9    10    1
    38    18    21    1
    39    18    22    1
    40    36    37    1
