@<TRIPOS>MOLECULE
*****
 21 22 0 0 0
SMALL
GASTEIGER

@<TRIPOS>ATOM
      1 N         138.4966  140.2365  164.2534 N.pl3   1  UNL1       -0.2877
      2 C         138.7765  141.7101  164.2315 C.ar    1  UNL1        0.1320
      3 C         137.6777  142.6866  164.5300 C.ar    1  UNL1        0.0343
      4 C         137.9575  144.1601  164.5081 C.ar    1  UNL1        0.0045
      5 C         139.3361  144.6571  164.1878 C.ar    1  UNL1        0.0208
      6 C         140.4348  143.6806  163.8894 C.ar    1  UNL1        0.1003
      7 N         140.1550  142.2070  163.9112 N.ar    1  UNL1       -0.2292
      8 C         138.4593  139.4995  165.5592 C.3     1  UNL1        0.1189
      9 C         141.8906  139.8642  168.4477 C.ar    1  UNL1        0.1387
     10 C         140.4823  140.0527  168.9284 C.ar    1  UNL1        0.0366
     11 C         139.3385  139.9311  167.9656 C.ar    1  UNL1        0.0005
     12 C         139.6030  139.6211  166.5221 C.ar    1  UNL1       -0.0022
     13 C         141.0113  139.4327  166.0413 C.ar    1  UNL1        0.0005
     14 C         142.1551  139.5542  167.0041 C.ar    1  UNL1        0.0366
     15 C         143.3687  141.3179  170.0136 C.3     1  UNL1        0.2525
     16 O         143.0343  139.9858  169.4105 O.3     1  UNL1       -0.4714
     17 C         138.2541  139.5001  162.9693 C.3     1  UNL1        0.1098
     18 C         138.7466  138.0924  162.8075 C.3     1  UNL1        0.0939
     19 N         140.1733  137.8367  162.4214 N.3     1  UNL1       -0.2688
     20 C         141.0789  137.0855  163.3517 C.3     1  UNL1        0.0897
     21 C         140.6943  138.3322  161.1049 C.3     1  UNL1        0.0897
@<TRIPOS>BOND
     1    15    16    1
     2    16     9    1
     3     9    10   ar
     4    10    11   ar
     5    11    12   ar
     6    12     8    1
     7     8     1    1
     8     1    17    1
     9    17    18    1
    10    18    19    1
    11    19    20    1
    12    19    21    1
    13     1     2    1
    14     2     3   ar
    15     3     4   ar
    16     4     5   ar
    17     5     6   ar
    18     6     7   ar
    19    12    13   ar
    20    13    14   ar
    21    14     9   ar
    22     7     2   ar
@<TRIPOS>MOLECULE
*****
 21 22 0 0 0
SMALL
GASTEIGER

@<TRIPOS>ATOM
      1 N         141.1543  140.8572  167.2959 N.pl3   1  UNL1       -0.2877
      2 C         140.3645  139.7813  166.6111 C.ar    1  UNL1        0.1320
      3 C         138.9305  139.5502  166.9852 C.ar    1  UNL1        0.0343
      4 C         138.1407  138.4744  166.3005 C.ar    1  UNL1        0.0045
      5 C         138.7851  137.6296  165.2415 C.ar    1  UNL1        0.0208
      6 C         140.2191  137.8608  164.8674 C.ar    1  UNL1        0.1003
      7 N         141.0089  138.9366  165.5522 N.ar    1  UNL1       -0.2292
      8 C         140.6715  142.2770  167.2649 C.3     1  UNL1        0.1189
      9 C         140.8022  144.6146  163.4219 C.ar    1  UNL1        0.1387
     10 C         139.5657  144.6353  164.2707 C.ar    1  UNL1        0.0366
     11 C         139.5221  143.8561  165.5517 C.ar    1  UNL1        0.0005
     12 C         140.7151  143.0562  165.9839 C.ar    1  UNL1       -0.0022
     13 C         141.9516  143.0355  165.1351 C.ar    1  UNL1        0.0005
     14 C         141.9952  143.8147  163.8541 C.ar    1  UNL1        0.0366
     15 C         139.7218  146.3228  161.7895 C.3     1  UNL1        0.2525
     16 O         140.8458  145.3938  162.1409 O.3     1  UNL1       -0.4714
     17 C         142.4268  140.5131  168.0117 C.3     1  UNL1        0.1098
     18 C         142.3808  140.0153  169.4260 C.3     1  UNL1        0.0939
     19 N         141.4514  140.6532  170.4157 N.3     1  UNL1       -0.2688
     20 C         140.1243  140.0209  170.7138 C.3     1  UNL1        0.0897
     21 C         141.8493  141.9235  171.1073 C.3     1  UNL1        0.0897
@<TRIPOS>BOND
     1    15    16    1
     2    16     9    1
     3     9    10   ar
     4    10    11   ar
     5    11    12   ar
     6    12     8    1
     7     8     1    1
     8     1    17    1
     9    17    18    1
    10    18    19    1
    11    19    20    1
    12    19    21    1
    13     1     2    1
    14     2     3   ar
    15     3     4   ar
    16     4     5   ar
    17     5     6   ar
    18     6     7   ar
    19    12    13   ar
    20    13    14   ar
    21    14     9   ar
    22     7     2   ar
@<TRIPOS>MOLECULE
*****
 21 22 0 0 0
SMALL
GASTEIGER

@<TRIPOS>ATOM
      1 N         139.5657  139.6285  165.7897 N.pl3   1  UNL1       -0.2877
      2 C         140.3360  139.7561  167.0705 C.ar    1  UNL1        0.1320
      3 C         141.8353  139.7946  167.0432 C.ar    1  UNL1        0.0343
      4 C         142.6056  139.9222  168.3239 C.ar    1  UNL1        0.0045
      5 C         141.8767  140.0112  169.6320 C.ar    1  UNL1        0.0208
      6 C         140.3774  139.9727  169.6592 C.ar    1  UNL1        0.1003
      7 N         139.6071  139.8451  168.3784 N.ar    1  UNL1       -0.2292
      8 C         138.3249  140.4440  165.5763 C.3     1  UNL1        0.1189
      9 C         138.4769  144.1458  163.0222 C.ar    1  UNL1        0.1387
     10 C         139.1877  144.1160  164.3427 C.ar    1  UNL1        0.0366
     11 C         139.1370  142.8821  165.1941 C.ar    1  UNL1        0.0005
     12 C         138.3756  141.6779  164.7249 C.ar    1  UNL1       -0.0022
     13 C         137.6648  141.7077  163.4044 C.ar    1  UNL1        0.0005
     14 C         137.7155  142.9416  162.5530 C.ar    1  UNL1        0.0366
     15 C         139.8343  146.0796  161.9416 C.3     1  UNL1        0.2525
     16 O         138.5276  145.3797  162.1708 O.3     1  UNL1       -0.4714
     17 C         140.0361  138.6855  164.7223 C.3     1  UNL1        0.1098
     18 C         139.0378  137.9483  163.8796 C.3     1  UNL1        0.0939
     19 N         139.0295  138.1348  162.3912 N.3     1  UNL1       -0.2688
     20 C         140.3069  138.0181  161.6136 C.3     1  UNL1        0.0897
     21 C         137.7438  138.4381  161.6805 C.3     1  UNL1        0.0897
@<TRIPOS>BOND
     1    15    16    1
     2    16     9    1
     3     9    10   ar
     4    10    11   ar
     5    11    12   ar
     6    12     8    1
     7     8     1    1
     8     1    17    1
     9    17    18    1
    10    18    19    1
    11    19    20    1
    12    19    21    1
    13     1     2    1
    14     2     3   ar
    15     3     4   ar
    16     4     5   ar
    17     5     6   ar
    18     6     7   ar
    19    12    13   ar
    20    13    14   ar
    21    14     9   ar
    22     7     2   ar
@<TRIPOS>MOLECULE
*****
 21 22 0 0 0
SMALL
GASTEIGER

@<TRIPOS>ATOM
      1 N         140.4042  141.7731  166.4541 N.pl3   1  UNL1       -0.2877
      2 C         141.2259  141.3469  167.6345 C.ar    1  UNL1        0.1320
      3 C         142.4315  142.1440  168.0361 C.ar    1  UNL1        0.0343
      4 C         143.2531  141.7178  169.2165 C.ar    1  UNL1        0.0045
      5 C         142.8691  140.4946  169.9953 C.ar    1  UNL1        0.0208
      6 C         141.6635  139.6976  169.5937 C.ar    1  UNL1        0.1003
      7 N         140.8419  140.1238  168.4132 N.ar    1  UNL1       -0.2292
      8 C         139.8962  143.1815  166.3631 C.3     1  UNL1        0.1189
      9 C         139.5829  145.2060  162.3564 C.ar    1  UNL1        0.1387
     10 C         140.9142  145.0945  163.0383 C.ar    1  UNL1        0.0366
     11 C         141.0187  144.4197  164.3738 C.ar    1  UNL1        0.0005
     12 C         139.7918  143.8563  165.0275 C.ar    1  UNL1       -0.0022
     13 C         138.4604  143.9678  164.3456 C.ar    1  UNL1        0.0005
     14 C         138.3560  144.6426  163.0100 C.ar    1  UNL1        0.0366
     15 C         140.3487  145.4330  159.8842 C.3     1  UNL1        0.2525
     16 O         139.4784  145.8808  161.0208 O.3     1  UNL1       -0.4714
     17 C         140.0906  140.7908  165.3647 C.3     1  UNL1        0.1098
     18 C         138.7144  140.2037  165.2575 C.3     1  UNL1        0.0939
     19 N         138.4536  138.8097  165.7461 N.3     1  UNL1       -0.2688
     20 C         138.9381  137.6335  164.9514 C.3     1  UNL1        0.0897
     21 C         137.7082  138.5920  167.0295 C.3     1  UNL1        0.0897
@<TRIPOS>BOND
     1    15    16    1
     2    16     9    1
     3     9    10   ar
     4    10    11   ar
     5    11    12   ar
     6    12     8    1
     7     8     1    1
     8     1    17    1
     9    17    18    1
    10    18    19    1
    11    19    20    1
    12    19    21    1
    13     1     2    1
    14     2     3   ar
    15     3     4   ar
    16     4     5   ar
    17     5     6   ar
    18     6     7   ar
    19    12    13   ar
    20    13    14   ar
    21    14     9   ar
    22     7     2   ar
@<TRIPOS>MOLECULE
*****
 21 22 0 0 0
SMALL
GASTEIGER

@<TRIPOS>ATOM
      1 N         141.0838  140.9780  167.0752 N.pl3   1  UNL1       -0.2877
      2 C         140.3311  139.8410  166.4501 C.ar    1  UNL1        0.1320
      3 C         138.9186  139.5572  166.8675 C.ar    1  UNL1        0.0343
      4 C         138.1659  138.4203  166.2424 C.ar    1  UNL1        0.0045
      5 C         138.8257  137.5671  165.1998 C.ar    1  UNL1        0.0208
      6 C         140.2382  137.8510  164.7824 C.ar    1  UNL1        0.1003
      7 N         140.9909  138.9879  165.4076 N.ar    1  UNL1       -0.2292
      8 C         140.4739  142.3477  167.1182 C.3     1  UNL1        0.1189
      9 C         140.4499  144.9169  163.4238 C.ar    1  UNL1        0.1387
     10 C         141.6691  144.1156  163.7722 C.ar    1  UNL1        0.0366
     11 C         141.6771  143.2592  165.0036 C.ar    1  UNL1        0.0005
     12 C         140.4659  143.2041  165.8867 C.ar    1  UNL1       -0.0022
     13 C         139.2467  144.0053  165.5383 C.ar    1  UNL1        0.0005
     14 C         139.2387  144.8617  164.3068 C.ar    1  UNL1        0.0366
     15 C         140.6853  145.1553  160.8474 C.3     1  UNL1        0.2525
     16 O         140.4418  145.7732  162.1923 O.3     1  UNL1       -0.4714
     17 C         142.4465  140.7452  167.6575 C.3     1  UNL1        0.1098
     18 C         142.5849  140.2214  169.0563 C.3     1  UNL1        0.0939
     19 N         141.6799  140.7280  170.1398 N.3     1  UNL1       -0.2688
     20 C         142.0172  141.9959  170.8670 C.3     1  UNL1        0.0897
     21 C         140.4374  139.9668  170.4962 C.3     1  UNL1        0.0897
@<TRIPOS>BOND
     1    15    16    1
     2    16     9    1
     3     9    10   ar
     4    10    11   ar
     5    11    12   ar
     6    12     8    1
     7     8     1    1
     8     1    17    1
     9    17    18    1
    10    18    19    1
    11    19    20    1
    12    19    21    1
    13     1     2    1
    14     2     3   ar
    15     3     4   ar
    16     4     5   ar
    17     5     6   ar
    18     6     7   ar
    19    12    13   ar
    20    13    14   ar
    21    14     9   ar
    22     7     2   ar
@<TRIPOS>MOLECULE
*****
 21 22 0 0 0
SMALL
GASTEIGER

@<TRIPOS>ATOM
      1 N         141.2986  140.6650  167.4144 N.pl3   1  UNL1       -0.2877
      2 C         140.4794  139.6672  166.6506 C.ar    1  UNL1        0.1320
      3 C         141.1121  138.8560  165.5590 C.ar    1  UNL1        0.0343
      4 C         140.2930  137.8581  164.7952 C.ar    1  UNL1        0.0045
      5 C         138.8412  137.6715  165.1230 C.ar    1  UNL1        0.0208
      6 C         138.2085  138.4827  166.2146 C.ar    1  UNL1        0.1003
      7 N         139.0276  139.4806  166.9784 N.ar    1  UNL1       -0.2292
      8 C         142.0568  141.7314  166.6811 C.3     1  UNL1        0.1189
      9 C         139.8828  144.5461  163.9240 C.ar    1  UNL1        0.1387
     10 C         141.2052  143.9681  163.5153 C.ar    1  UNL1        0.0366
     11 C         141.9299  143.0299  164.4343 C.ar    1  UNL1        0.0005
     12 C         141.3321  142.6696  165.7620 C.ar    1  UNL1       -0.0022
     13 C         140.0097  143.2476  166.1707 C.ar    1  UNL1        0.0005
     14 C         139.2850  144.1858  165.2517 C.ar    1  UNL1        0.0366
     15 C         139.8859  146.1239  161.8600 C.3     1  UNL1        0.2525
     16 O         139.1581  145.4843  163.0050 O.3     1  UNL1       -0.4714
     17 C         141.3594  140.5964  168.9116 C.3     1  UNL1        0.1098
     18 C         140.6205  141.6059  169.7393 C.3     1  UNL1        0.0939
     19 N         141.2462  142.9370  170.0338 N.3     1  UNL1       -0.2688
     20 C         142.7051  143.0215  170.3720 C.3     1  UNL1        0.0897
     21 C         140.4130  144.1835  169.9901 C.3     1  UNL1        0.0897
@<TRIPOS>BOND
     1    15    16    1
     2    16     9    1
     3     9    10   ar
     4    10    11   ar
     5    11    12   ar
     6    12     8    1
     7     8     1    1
     8     1    17    1
     9    17    18    1
    10    18    19    1
    11    19    20    1
    12    19    21    1
    13     1     2    1
    14     2     3   ar
    15     3     4   ar
    16     4     5   ar
    17     5     6   ar
    18     6     7   ar
    19    12    13   ar
    20    13    14   ar
    21    14     9   ar
    22     7     2   ar
@<TRIPOS>MOLECULE
*****
 21 22 0 0 0
SMALL
GASTEIGER

@<TRIPOS>ATOM
      1 N         142.8233  140.9192  166.6922 N.pl3   1  UNL1       -0.2877
      2 C         142.3399  141.7783  167.8228 C.ar    1  UNL1        0.1320
      3 C         140.9610  142.3672  167.7809 C.ar    1  UNL1        0.0343
      4 C         140.4777  143.2263  168.9115 C.ar    1  UNL1        0.0045
      5 C         141.3733  143.4965  170.0841 C.ar    1  UNL1        0.0208
      6 C         142.7522  142.9076  170.1261 C.ar    1  UNL1        0.1003
      7 N         143.2355  142.0485  168.9954 N.ar    1  UNL1       -0.2292
      8 C         142.4995  139.4547  166.6715 C.3     1  UNL1        0.1189
      9 C         139.4211  137.8711  163.7965 C.ar    1  UNL1        0.1387
     10 C         139.0127  138.8166  164.8870 C.ar    1  UNL1        0.0366
     11 C         140.0388  139.3444  165.8454 C.ar    1  UNL1        0.0005
     12 C         141.4734  138.9268  165.7132 C.ar    1  UNL1       -0.0022
     13 C         141.8819  137.9814  164.6227 C.ar    1  UNL1        0.0005
     14 C         140.8557  137.4536  163.6643 C.ar    1  UNL1        0.0366
     15 C         137.8624  138.2258  161.7484 C.3     1  UNL1        0.2525
     16 O         138.3950  137.3433  162.8382 O.3     1  UNL1       -0.4714
     17 C         143.6303  141.5246  165.5821 C.3     1  UNL1        0.1098
     18 C         143.8277  143.0104  165.5225 C.3     1  UNL1        0.0939
     19 N         143.0387  143.8333  164.5476 N.3     1  UNL1       -0.2688
     20 C         143.6575  145.0446  163.9153 C.3     1  UNL1        0.0897
     21 C         141.6309  143.4448  164.2051 C.3     1  UNL1        0.0897
@<TRIPOS>BOND
     1    15    16    1
     2    16     9    1
     3     9    10   ar
     4    10    11   ar
     5    11    12   ar
     6    12     8    1
     7     8     1    1
     8     1    17    1
     9    17    18    1
    10    18    19    1
    11    19    20    1
    12    19    21    1
    13     1     2    1
    14     2     3   ar
    15     3     4   ar
    16     4     5   ar
    17     5     6   ar
    18     6     7   ar
    19    12    13   ar
    20    13    14   ar
    21    14     9   ar
    22     7     2   ar
@<TRIPOS>MOLECULE
*****
 21 22 0 0 0
SMALL
GASTEIGER

@<TRIPOS>ATOM
      1 N         140.7753  140.0302  167.9981 N.pl3   1  UNL1       -0.2877
      2 C         141.8237  140.3348  166.9693 C.ar    1  UNL1        0.1320
      3 C         142.0936  141.7556  166.5714 C.ar    1  UNL1        0.0343
      4 C         143.1419  142.0602  165.5427 C.ar    1  UNL1        0.0045
      5 C         143.9203  140.9438  164.9118 C.ar    1  UNL1        0.0208
      6 C         143.6504  139.5230  165.3097 C.ar    1  UNL1        0.1003
      7 N         142.6020  139.2185  166.3385 N.ar    1  UNL1       -0.2292
      8 C         139.3479  139.8368  167.5798 C.3     1  UNL1        0.1189
      9 C         138.3541  139.0655  163.2592 C.ar    1  UNL1        0.1387
     10 C         138.8773  137.9530  164.1186 C.ar    1  UNL1        0.0366
     11 C         139.2085  138.2101  165.5588 C.ar    1  UNL1        0.0005
     12 C         139.0166  139.5797  166.1396 C.ar    1  UNL1       -0.0022
     13 C         138.4935  140.6922  165.2802 C.ar    1  UNL1        0.0005
     14 C         138.1622  140.4351  163.8400 C.ar    1  UNL1        0.0366
     15 C         139.0381  138.1698  160.9184 C.3     1  UNL1        0.2525
     16 O         138.0228  138.8084  161.8190 O.3     1  UNL1       -0.4714
     17 C         141.1545  139.9192  169.4451 C.3     1  UNL1        0.1098
     18 C         140.8801  141.0583  170.3819 C.3     1  UNL1        0.0939
     19 N         141.3765  142.4352  170.0539 N.3     1  UNL1       -0.2688
     20 C         142.8289  142.7692  170.2238 C.3     1  UNL1        0.0897
     21 C         140.4203  143.4783  169.5559 C.3     1  UNL1        0.0897
@<TRIPOS>BOND
     1    15    16    1
     2    16     9    1
     3     9    10   ar
     4    10    11   ar
     5    11    12   ar
     6    12     8    1
     7     8     1    1
     8     1    17    1
     9    17    18    1
    10    18    19    1
    11    19    20    1
    12    19    21    1
    13     1     2    1
    14     2     3   ar
    15     3     4   ar
    16     4     5   ar
    17     5     6   ar
    18     6     7   ar
    19    12    13   ar
    20    13    14   ar
    21    14     9   ar
    22     7     2   ar
@<TRIPOS>MOLECULE
*****
 21 22 0 0 0
SMALL
GASTEIGER

@<TRIPOS>ATOM
      1 N         140.9780  141.8652  166.1553 N.pl3   1  UNL1       -0.2877
      2 C         140.1604  140.6344  165.8970 C.ar    1  UNL1        0.1320
      3 C         139.3406  140.0335  167.0001 C.ar    1  UNL1        0.0343
      4 C         138.5230  138.8027  166.7419 C.ar    1  UNL1        0.0045
      5 C         138.5253  138.1727  165.3806 C.ar    1  UNL1        0.0208
      6 C         139.3451  138.7736  164.2775 C.ar    1  UNL1        0.1003
      7 N         140.1627  140.0045  164.5357 N.ar    1  UNL1       -0.2292
      8 C         140.3293  143.2172  166.1216 C.3     1  UNL1        0.1189
      9 C         139.6962  145.3117  162.1893 C.ar    1  UNL1        0.1387
     10 C         141.0813  145.1633  162.7456 C.ar    1  UNL1        0.0366
     11 C         141.2923  144.4651  164.0563 C.ar    1  UNL1        0.0005
     12 C         140.1183  143.9154  164.8108 C.ar    1  UNL1       -0.0022
     13 C         138.7332  144.0638  164.2546 C.ar    1  UNL1        0.0005
     14 C         138.5222  144.7620  162.9439 C.ar    1  UNL1        0.0366
     15 C         140.3059  145.6254  159.6834 C.3     1  UNL1        0.2525
     16 O         139.4852  146.0099  160.8786 O.3     1  UNL1       -0.4714
     17 C         142.4444  141.7440  166.4472 C.3     1  UNL1        0.1098
     18 C         143.3883  141.2927  165.3723 C.3     1  UNL1        0.0939
     19 N         144.4721  142.2116  164.8916 N.3     1  UNL1       -0.2688
     20 C         144.5792  143.6005  165.4479 C.3     1  UNL1        0.0897
     21 C         145.4488  141.7415  163.8547 C.3     1  UNL1        0.0897
@<TRIPOS>BOND
     1    15    16    1
     2    16     9    1
     3     9    10   ar
     4    10    11   ar
     5    11    12   ar
     6    12     8    1
     7     8     1    1
     8     1    17    1
     9    17    18    1
    10    18    19    1
    11    19    20    1
    12    19    21    1
    13     1     2    1
    14     2     3   ar
    15     3     4   ar
    16     4     5   ar
    17     5     6   ar
    18     6     7   ar
    19    12    13   ar
    20    13    14   ar
    21    14     9   ar
    22     7     2   ar
