@<TRIPOS>MOLECULE
*****
 32 36 0 0 0
SMALL
GASTEIGER

@<TRIPOS>ATOM
      1 C         138.7050  138.2214  161.3169 C.3     1  UNL1        0.0173
      2 C         142.3754  139.2334  158.9182 C.3     1  UNL1        0.0719
      3 C         141.0344  139.1752  158.2486 C.3     1  UNL1        0.0196
      4 C         139.8109  138.8379  159.0482 C.3     1  UNL1        0.0017
      5 C         139.9284  138.5588  160.5172 C.3     1  UNL1        0.0015
      6 C         141.2694  138.6169  161.1868 C.3     1  UNL1        0.0017
      7 C         142.4929  138.9543  160.3873 C.3     1  UNL1        0.0196
      8 O         143.1421  142.1016  158.4872 O.2     1  UNL1       -0.2668
      9 C         143.9822  141.0048  157.9032 C.2     1  UNL1        0.2805
     10 N         143.5989  139.5707  158.1187 N.am    1  UNL1       -0.3000
     11 H         144.1503  138.8509  157.7353 H       1  UNL1        0.1498
     12 C         145.2057  141.3421  157.1036 C.ar    1  UNL1        0.1985
     13 C         145.6680  140.6407  155.8610 C.ar    1  UNL1        0.0454
     14 C         146.9297  141.3051  155.3958 C.ar    1  UNL1        0.0440
     15 C         147.2474  142.4172  156.3509 C.ar    1  UNL1        0.1798
     16 O         146.1818  142.4400  157.4065 O.2     1  UNL1       -0.4458
     17 C         138.0313  139.2796  162.1394 C.3     1  UNL1        0.0722
     18 N         138.4729  139.5262  163.5515 N.3     1  UNL1       -0.2698
     19 C         138.7512  138.3682  164.4634 C.3     1  UNL1        0.0939
     20 C         139.1928  138.6149  165.8756 C.3     1  UNL1        0.1095
     21 N         139.3562  140.0196  166.3758 N.pl3   1  UNL1       -0.2899
     22 C         139.0778  141.1775  165.4639 C.3     1  UNL1        0.1095
     23 C         138.6362  140.9309  164.0518 C.3     1  UNL1        0.0939
     24 C         139.7978  140.2662  167.7880 C.ar    1  UNL1        0.1400
     25 N         139.0765  139.8254  169.0271 N.ar    1  UNL1       -0.1943
     26 S         139.8711  140.2838  170.2138 S.2     1  UNL1        0.0144
     27 C         141.0836  141.0079  169.7082 C.ar    1  UNL1        0.0502
     28 C         142.2230  141.6757  170.4193 C.ar    1  UNL1        0.0080
     29 C         143.3171  142.3327  169.6311 C.ar    1  UNL1        0.0006
     30 C         143.2717  142.3219  168.1318 C.ar    1  UNL1        0.0001
     31 C         142.1323  141.6541  167.4207 C.ar    1  UNL1        0.0033
     32 C         141.0382  140.9971  168.2089 C.ar    1  UNL1        0.0396
@<TRIPOS>BOND
     1     8     9    2
     2     9    10   am
     3     2    10    1
     4     2     3    1
     5     3     4    1
     6     4     5    1
     7     5     1    1
     8     1    17    1
     9    17    18    1
    10    18    19    1
    11    19    20    1
    12    20    21    1
    13    21    24    1
    14    24    25   ar
    15    25    26   ar
    16    26    27   ar
    17    27    28   ar
    18    28    29   ar
    19    29    30   ar
    20    30    31   ar
    21    31    32   ar
    22    21    22    1
    23    22    23    1
    24     5     6    1
    25     6     7    1
    26     9    12    1
    27    12    13   ar
    28    13    14   ar
    29    14    15   ar
    30    15    16   ar
    31     7     2    1
    32    16    12   ar
    33    23    18    1
    34    32    24   ar
    35    32    27   ar
    36    10    11    1
@<TRIPOS>MOLECULE
*****
 32 36 0 0 0
SMALL
GASTEIGER

@<TRIPOS>ATOM
      1 C         142.9596  139.2714  166.6997 C.3     1  UNL1        0.0173
      2 C         142.8581  137.8919  162.4177 C.3     1  UNL1        0.0719
      3 C         141.7306  137.5452  163.3442 C.3     1  UNL1        0.0196
      4 C         141.7644  138.0050  164.7716 C.3     1  UNL1        0.0017
      5 C         142.9257  138.8115  165.2723 C.3     1  UNL1        0.0015
      6 C         144.0532  139.1582  164.3458 C.3     1  UNL1        0.0017
      7 C         144.0194  138.6984  162.9184 C.3     1  UNL1        0.0196
      8 O         142.0520  139.7984  160.2461 O.2     1  UNL1       -0.2668
      9 C         142.4213  138.3853  159.9045 C.2     1  UNL1        0.2805
     10 N         142.8243  137.4320  160.9903 N.am    1  UNL1       -0.3000
     11 H         143.0667  136.5045  160.7660 H       1  UNL1        0.1498
     12 C         142.3875  137.9253  158.4772 C.ar    1  UNL1        0.1985
     13 C         141.6163  138.5670  157.3621 C.ar    1  UNL1        0.0454
     14 C         141.8713  137.7811  156.1101 C.ar    1  UNL1        0.0440
     15 C         142.8000  136.6538  156.4514 C.ar    1  UNL1        0.1798
     16 O         143.1191  136.7430  157.9144 O.2     1  UNL1       -0.4458
     17 C         142.4791  140.6470  167.0560 C.3     1  UNL1        0.0722
     18 N         142.0365  141.5898  165.9766 N.3     1  UNL1       -0.2698
     19 C         143.0123  142.5627  165.3839 C.3     1  UNL1        0.0939
     20 C         142.5697  143.5055  164.3045 C.3     1  UNL1        0.1095
     21 N         141.1511  143.4755  163.8178 N.pl3   1  UNL1       -0.2899
     22 C         140.1753  142.5026  164.4104 C.3     1  UNL1        0.1095
     23 C         140.6180  141.5598  165.4898 C.3     1  UNL1        0.0939
     24 C         140.7084  144.4183  162.7383 C.ar    1  UNL1        0.1400
     25 N         139.7554  145.5646  162.9052 N.ar    1  UNL1       -0.1943
     26 S         139.5991  146.2351  161.5725 S.2     1  UNL1        0.0144
     27 C         140.4555  145.5032  160.5820 C.ar    1  UNL1        0.0502
     28 C         140.6995  145.7141  159.1172 C.ar    1  UNL1        0.0080
     29 C         141.6292  144.8022  158.3729 C.ar    1  UNL1        0.0006
     30 C         142.3149  143.6794  159.0934 C.ar    1  UNL1        0.0001
     31 C         142.0708  143.4685  160.5583 C.ar    1  UNL1        0.0033
     32 C         141.1411  144.3804  161.3026 C.ar    1  UNL1        0.0396
@<TRIPOS>BOND
     1     8     9    2
     2     9    10   am
     3     2    10    1
     4     2     3    1
     5     3     4    1
     6     4     5    1
     7     5     1    1
     8     1    17    1
     9    17    18    1
    10    18    19    1
    11    19    20    1
    12    20    21    1
    13    21    24    1
    14    24    25   ar
    15    25    26   ar
    16    26    27   ar
    17    27    28   ar
    18    28    29   ar
    19    29    30   ar
    20    30    31   ar
    21    31    32   ar
    22    21    22    1
    23    22    23    1
    24     5     6    1
    25     6     7    1
    26     9    12    1
    27    12    13   ar
    28    13    14   ar
    29    14    15   ar
    30    15    16   ar
    31     7     2    1
    32    16    12   ar
    33    23    18    1
    34    32    24   ar
    35    32    27   ar
    36    10    11    1
@<TRIPOS>MOLECULE
*****
 32 36 0 0 0
SMALL
GASTEIGER

@<TRIPOS>ATOM
      1 C         138.5381  141.6637  154.2382 C.3     1  UNL1        0.0173
      2 C         134.4485  140.0876  155.2586 C.3     1  UNL1        0.0719
      3 C         134.7847  141.5258  155.5200 C.3     1  UNL1        0.0196
      4 C         136.1479  142.0512  155.1799 C.3     1  UNL1        0.0017
      5 C         137.1748  141.1383  154.5783 C.3     1  UNL1        0.0015
      6 C         136.8386  139.7001  154.3168 C.3     1  UNL1        0.0017
      7 C         135.4755  139.1746  154.6570 C.3     1  UNL1        0.0196
      8 O         133.8622  139.1261  158.0392 O.2     1  UNL1       -0.2668
      9 C         132.7922  139.0814  156.9890 C.2     1  UNL1        0.2805
     10 N         133.0853  139.5621  155.5987 N.am    1  UNL1       -0.3000
     11 H         132.3830  139.5328  154.9094 H       1  UNL1        0.1498
     12 C         131.4290  138.5560  157.3290 C.ar    1  UNL1        0.1985
     13 C         130.3807  138.1233  156.3474 C.ar    1  UNL1        0.0454
     14 C         129.1786  137.6710  157.1222 C.ar    1  UNL1        0.0440
     15 C         129.4839  137.8241  158.5827 C.ar    1  UNL1        0.1798
     16 O         130.8748  138.3712  158.7106 O.2     1  UNL1       -0.4458
     17 C         139.6682  141.5023  155.2112 C.3     1  UNL1        0.0722
     18 N         139.4999  141.9413  156.6356 N.3     1  UNL1       -0.2698
     19 C         139.0118  140.9682  157.6676 C.3     1  UNL1        0.0939
     20 C         138.8435  141.4072  159.0920 C.3     1  UNL1        0.1095
     21 N         139.1634  142.8192  159.4845 N.pl3   1  UNL1       -0.2899
     22 C         139.6515  143.7921  158.4526 C.3     1  UNL1        0.1095
     23 C         139.8198  143.3532  157.0281 C.3     1  UNL1        0.0939
     24 C         138.9951  143.2581  160.9090 C.ar    1  UNL1        0.1400
     25 N         137.7295  143.1843  161.7106 N.ar    1  UNL1       -0.1943
     26 S         138.0152  143.7285  163.0789 S.2     1  UNL1        0.0144
     27 C         139.4573  144.1386  163.1229 C.ar    1  UNL1        0.0502
     28 C         140.2973  144.7392  164.2109 C.ar    1  UNL1        0.0080
     29 C         141.7429  145.0491  163.9577 C.ar    1  UNL1        0.0006
     30 C         142.3485  144.7584  162.6166 C.ar    1  UNL1        0.0001
     31 C         141.5086  144.1578  161.5286 C.ar    1  UNL1        0.0033
     32 C         140.0630  143.8479  161.7818 C.ar    1  UNL1        0.0396
@<TRIPOS>BOND
     1     8     9    2
     2     9    10   am
     3     2    10    1
     4     2     3    1
     5     3     4    1
     6     4     5    1
     7     5     1    1
     8     1    17    1
     9    17    18    1
    10    18    19    1
    11    19    20    1
    12    20    21    1
    13    21    24    1
    14    24    25   ar
    15    25    26   ar
    16    26    27   ar
    17    27    28   ar
    18    28    29   ar
    19    29    30   ar
    20    30    31   ar
    21    31    32   ar
    22    21    22    1
    23    22    23    1
    24     5     6    1
    25     6     7    1
    26     9    12    1
    27    12    13   ar
    28    13    14   ar
    29    14    15   ar
    30    15    16   ar
    31     7     2    1
    32    16    12   ar
    33    23    18    1
    34    32    24   ar
    35    32    27   ar
    36    10    11    1
@<TRIPOS>MOLECULE
*****
 32 36 0 0 0
SMALL
GASTEIGER

@<TRIPOS>ATOM
      1 C         140.4725  142.7126  167.2770 C.3     1  UNL1        0.0173
      2 C         142.6546  139.9613  170.0910 C.3     1  UNL1        0.0719
      3 C         141.2703  139.6163  169.6279 C.3     1  UNL1        0.0196
      4 C         140.5429  140.5333  168.6898 C.3     1  UNL1        0.0017
      5 C         141.1999  141.7954  168.2151 C.3     1  UNL1        0.0015
      6 C         142.5842  142.1405  168.6783 C.3     1  UNL1        0.0017
      7 C         143.3116  141.2234  169.6163 C.3     1  UNL1        0.0196
      8 O         143.7060  137.3310  169.1030 O.2     1  UNL1       -0.2668
      9 C         143.9077  137.7291  170.5350 C.2     1  UNL1        0.2805
     10 N         143.3820  139.0442  171.0291 N.am    1  UNL1       -0.3000
     11 H         143.5144  139.3055  171.9690 H       1  UNL1        0.1498
     12 C         144.6351  136.8121  171.4731 C.ar    1  UNL1        0.1985
     13 C         144.4178  135.3340  171.6065 C.ar    1  UNL1        0.0454
     14 C         145.3560  134.8207  172.6584 C.ar    1  UNL1        0.0440
     15 C         146.1531  135.9815  173.1751 C.ar    1  UNL1        0.1798
     16 O         145.7075  137.2123  172.4425 O.2     1  UNL1       -0.4458
     17 C         139.8056  142.1584  166.0531 C.3     1  UNL1        0.0722
     18 N         140.4079  142.3932  164.6995 N.3     1  UNL1       -0.2698
     19 C         141.1234  143.6793  164.4097 C.3     1  UNL1        0.0939
     20 C         141.7256  143.9140  163.0561 C.3     1  UNL1        0.1095
     21 N         141.6123  142.8626  161.9922 N.pl3   1  UNL1       -0.2899
     22 C         140.8968  141.5766  162.2820 C.3     1  UNL1        0.1095
     23 C         140.2946  141.3418  163.6356 C.3     1  UNL1        0.0939
     24 C         142.2145  143.0974  160.6386 C.ar    1  UNL1        0.1400
     25 N         143.4318  142.4177  160.0853 N.ar    1  UNL1       -0.1943
     26 S         143.6748  142.9534  158.7054 S.2     1  UNL1        0.0144
     27 C         142.6076  143.9641  158.4059 C.ar    1  UNL1        0.0502
     28 C         142.3411  144.8148  157.1997 C.ar    1  UNL1        0.0080
     29 C         141.1721  145.7546  157.1882 C.ar    1  UNL1        0.0006
     30 C         140.2696  145.8436  158.3830 C.ar    1  UNL1        0.0001
     31 C         140.5361  144.9929  159.5893 C.ar    1  UNL1        0.0033
     32 C         141.7051  144.0531  159.6008 C.ar    1  UNL1        0.0396
@<TRIPOS>BOND
     1     8     9    2
     2     9    10   am
     3     2    10    1
     4     2     3    1
     5     3     4    1
     6     4     5    1
     7     5     1    1
     8     1    17    1
     9    17    18    1
    10    18    19    1
    11    19    20    1
    12    20    21    1
    13    21    24    1
    14    24    25   ar
    15    25    26   ar
    16    26    27   ar
    17    27    28   ar
    18    28    29   ar
    19    29    30   ar
    20    30    31   ar
    21    31    32   ar
    22    21    22    1
    23    22    23    1
    24     5     6    1
    25     6     7    1
    26     9    12    1
    27    12    13   ar
    28    13    14   ar
    29    14    15   ar
    30    15    16   ar
    31     7     2    1
    32    16    12   ar
    33    23    18    1
    34    32    24   ar
    35    32    27   ar
    36    10    11    1
@<TRIPOS>MOLECULE
*****
 32 36 0 0 0
SMALL
GASTEIGER

@<TRIPOS>ATOM
      1 C         144.0392  138.7337  160.6683 C.3     1  UNL1        0.0173
      2 C         143.2623  140.1813  164.8577 C.3     1  UNL1        0.0719
      3 C         144.2367  140.9105  163.9808 C.3     1  UNL1        0.0196
      4 C         144.4957  140.4280  162.5844 C.3     1  UNL1        0.0017
      5 C         143.7803  139.2163  162.0648 C.3     1  UNL1        0.0015
      6 C         142.8059  138.4871  162.9417 C.3     1  UNL1        0.0017
      7 C         142.5469  138.9696  164.3382 C.3     1  UNL1        0.0196
      8 O         141.7113  142.7095  165.3078 O.2     1  UNL1       -0.2668
      9 C         142.2278  141.9279  166.4792 C.2     1  UNL1        0.2805
     10 N         143.0033  140.6638  166.2542 N.am    1  UNL1       -0.3000
     11 H         143.3424  140.1508  167.0230 H       1  UNL1        0.1498
     12 C         141.9689  142.4103  167.8757 C.ar    1  UNL1        0.1985
     13 C         140.6394  142.8242  168.4333 C.ar    1  UNL1        0.0454
     14 C         140.8429  143.2332  169.8620 C.ar    1  UNL1        0.0440
     15 C         142.2982  143.0722  170.1875 C.ar    1  UNL1        0.1798
     16 O         142.9942  142.5636  168.9598 O.2     1  UNL1       -0.4458
     17 C         143.2160  139.2576  159.5291 C.3     1  UNL1        0.0722
     18 N         143.8632  140.0714  158.4481 N.3     1  UNL1       -0.2698
     19 C         143.8703  139.5702  157.0343 C.3     1  UNL1        0.0939
     20 C         144.5176  140.3841  155.9533 C.3     1  UNL1        0.1095
     21 N         145.1578  141.6993  156.2860 N.pl3   1  UNL1       -0.2899
     22 C         145.1506  142.2004  157.6997 C.3     1  UNL1        0.1095
     23 C         144.5033  141.3865  158.7808 C.3     1  UNL1        0.0939
     24 C         145.8050  142.5132  155.2050 C.ar    1  UNL1        0.1400
     25 N         145.1159  143.5058  154.3163 N.ar    1  UNL1       -0.1943
     26 S         146.1400  144.0834  153.3849 S.2     1  UNL1        0.0144
     27 C         147.4621  143.4477  153.6980 C.ar    1  UNL1        0.0502
     28 C         148.8278  143.6272  153.1040 C.ar    1  UNL1        0.0080
     29 C         149.9864  142.8362  153.6350 C.ar    1  UNL1        0.0006
     30 C         149.7793  141.8657  154.7598 C.ar    1  UNL1        0.0001
     31 C         148.4137  141.6862  155.3538 C.ar    1  UNL1        0.0033
     32 C         147.2551  142.4772  154.8228 C.ar    1  UNL1        0.0396
@<TRIPOS>BOND
     1     8     9    2
     2     9    10   am
     3     2    10    1
     4     2     3    1
     5     3     4    1
     6     4     5    1
     7     5     1    1
     8     1    17    1
     9    17    18    1
    10    18    19    1
    11    19    20    1
    12    20    21    1
    13    21    24    1
    14    24    25   ar
    15    25    26   ar
    16    26    27   ar
    17    27    28   ar
    18    28    29   ar
    19    29    30   ar
    20    30    31   ar
    21    31    32   ar
    22    21    22    1
    23    22    23    1
    24     5     6    1
    25     6     7    1
    26     9    12    1
    27    12    13   ar
    28    13    14   ar
    29    14    15   ar
    30    15    16   ar
    31     7     2    1
    32    16    12   ar
    33    23    18    1
    34    32    24   ar
    35    32    27   ar
    36    10    11    1
@<TRIPOS>MOLECULE
*****
 32 36 0 0 0
SMALL
GASTEIGER

@<TRIPOS>ATOM
      1 C         139.2545  138.2770  160.9316 C.3     1  UNL1        0.0173
      2 C         139.4112  141.6572  157.9652 C.3     1  UNL1        0.0719
      3 C         140.6770  140.9749  158.3923 C.3     1  UNL1        0.0196
      4 C         140.6247  139.8482  159.3811 C.3     1  UNL1        0.0017
      5 C         139.3068  139.4038  159.9428 C.3     1  UNL1        0.0015
      6 C         138.0411  140.0861  159.5157 C.3     1  UNL1        0.0017
      7 C         138.0933  141.2129  158.5269 C.3     1  UNL1        0.0196
      8 O         139.6794  144.4862  158.9273 O.2     1  UNL1       -0.2668
      9 C         139.5975  144.1984  157.4575 C.2     1  UNL1        0.2805
     10 N         139.4635  142.7840  156.9764 N.am    1  UNL1       -0.3000
     11 H         139.4097  142.5952  156.0117 H       1  UNL1        0.1498
     12 C         139.6497  145.3251  156.4686 C.ar    1  UNL1        0.1985
     13 C         140.8790  146.0776  156.0534 C.ar    1  UNL1        0.0454
     14 C         140.4707  147.1147  155.0495 C.ar    1  UNL1        0.0440
     15 C         138.9891  147.0031  154.8442 C.ar    1  UNL1        0.1798
     16 O         138.4816  145.8970  155.7213 O.2     1  UNL1       -0.4458
     17 C         138.2117  138.2733  162.0098 C.3     1  UNL1        0.0722
     18 N         138.5673  138.7149  163.3986 N.3     1  UNL1       -0.2698
     19 C         138.5895  140.1757  163.7386 C.3     1  UNL1        0.0939
     20 C         138.9451  140.6172  165.1273 C.3     1  UNL1        0.1095
     21 N         139.2785  139.5979  166.1762 N.pl3   1  UNL1       -0.2899
     22 C         139.2563  138.1371  165.8361 C.3     1  UNL1        0.1095
     23 C         138.9007  137.6956  164.4474 C.3     1  UNL1        0.0939
     24 C         139.6340  140.0394  167.5649 C.ar    1  UNL1        0.1400
     25 N         138.8588  139.7350  168.8125 N.ar    1  UNL1       -0.1943
     26 S         139.5730  140.3703  169.9685 S.2     1  UNL1        0.0144
     27 C         140.7895  141.0674  169.4354 C.ar    1  UNL1        0.0502
     28 C         141.8677  141.8619  170.1107 C.ar    1  UNL1        0.0080
     29 C         142.9837  142.4519  169.3005 C.ar    1  UNL1        0.0006
     30 C         143.0215  142.2473  167.8150 C.ar    1  UNL1        0.0001
     31 C         141.9432  141.4528  167.1397 C.ar    1  UNL1        0.0033
     32 C         140.8272  140.8628  167.9499 C.ar    1  UNL1        0.0396
@<TRIPOS>BOND
     1     8     9    2
     2     9    10   am
     3     2    10    1
     4     2     3    1
     5     3     4    1
     6     4     5    1
     7     5     1    1
     8     1    17    1
     9    17    18    1
    10    18    19    1
    11    19    20    1
    12    20    21    1
    13    21    24    1
    14    24    25   ar
    15    25    26   ar
    16    26    27   ar
    17    27    28   ar
    18    28    29   ar
    19    29    30   ar
    20    30    31   ar
    21    31    32   ar
    22    21    22    1
    23    22    23    1
    24     5     6    1
    25     6     7    1
    26     9    12    1
    27    12    13   ar
    28    13    14   ar
    29    14    15   ar
    30    15    16   ar
    31     7     2    1
    32    16    12   ar
    33    23    18    1
    34    32    24   ar
    35    32    27   ar
    36    10    11    1
@<TRIPOS>MOLECULE
*****
 32 36 0 0 0
SMALL
GASTEIGER

@<TRIPOS>ATOM
      1 C         144.0422  139.1719  160.5211 C.3     1  UNL1        0.0173
      2 C         142.4841  140.3087  164.5868 C.3     1  UNL1        0.0719
      3 C         143.5003  139.2136  164.4524 C.3     1  UNL1        0.0196
      4 C         144.0197  138.8347  163.0971 C.3     1  UNL1        0.0017
      5 C         143.5228  139.5508  161.8764 C.3     1  UNL1        0.0015
      6 C         142.5066  140.6459  162.0108 C.3     1  UNL1        0.0017
      7 C         141.9872  141.0248  163.3661 C.3     1  UNL1        0.0196
      8 O         139.9072  139.1417  165.5859 O.2     1  UNL1       -0.2668
      9 C         140.6763  140.1042  166.4415 C.2     1  UNL1        0.2805
     10 N         141.9646  140.6877  165.9420 N.am    1  UNL1       -0.3000
     11 H         142.4694  141.3194  166.5036 H       1  UNL1        0.1498
     12 C         140.1569  140.4832  167.7968 C.ar    1  UNL1        0.1985
     13 C         140.4854  141.7398  168.5471 C.ar    1  UNL1        0.0454
     14 C         139.7494  141.7053  169.8536 C.ar    1  UNL1        0.0440
     15 C         138.9660  140.4274  169.9109 C.ar    1  UNL1        0.1798
     16 O         139.2179  139.6721  168.6396 O.2     1  UNL1       -0.4458
     17 C         143.3340  139.6466  159.2870 C.3     1  UNL1        0.0722
     18 N         144.0911  140.3907  158.2272 N.3     1  UNL1       -0.2698
     19 C         144.6571  141.7480  158.5230 C.3     1  UNL1        0.0939
     20 C         145.4142  142.4921  157.4632 C.3     1  UNL1        0.1095
     21 N         145.6053  141.8789  156.1076 N.pl3   1  UNL1       -0.2899
     22 C         145.0394  140.5217  155.8120 C.3     1  UNL1        0.1095
     23 C         144.2823  139.7776  156.8717 C.3     1  UNL1        0.0939
     24 C         146.3625  142.6230  155.0479 C.ar    1  UNL1        0.1400
     25 N         145.7864  143.6257  154.0924 N.ar    1  UNL1       -0.1943
     26 S         146.8965  144.1174  153.2116 S.2     1  UNL1        0.0144
     27 C         148.1586  143.4187  153.6226 C.ar    1  UNL1        0.0502
     28 C         149.5657  143.5041  153.1101 C.ar    1  UNL1        0.0080
     29 C         150.6427  142.6659  153.7325 C.ar    1  UNL1        0.0006
     30 C         150.3126  141.7423  154.8674 C.ar    1  UNL1        0.0001
     31 C         148.9055  141.6569  155.3799 C.ar    1  UNL1        0.0033
     32 C         147.8285  142.4950  154.7575 C.ar    1  UNL1        0.0396
@<TRIPOS>BOND
     1     8     9    2
     2     9    10   am
     3     2    10    1
     4     2     3    1
     5     3     4    1
     6     4     5    1
     7     5     1    1
     8     1    17    1
     9    17    18    1
    10    18    19    1
    11    19    20    1
    12    20    21    1
    13    21    24    1
    14    24    25   ar
    15    25    26   ar
    16    26    27   ar
    17    27    28   ar
    18    28    29   ar
    19    29    30   ar
    20    30    31   ar
    21    31    32   ar
    22    21    22    1
    23    22    23    1
    24     5     6    1
    25     6     7    1
    26     9    12    1
    27    12    13   ar
    28    13    14   ar
    29    14    15   ar
    30    15    16   ar
    31     7     2    1
    32    16    12   ar
    33    23    18    1
    34    32    24   ar
    35    32    27   ar
    36    10    11    1
@<TRIPOS>MOLECULE
*****
 32 36 0 0 0
SMALL
GASTEIGER

@<TRIPOS>ATOM
      1 C         138.3897  141.3008  156.6255 C.3     1  UNL1        0.0173
      2 C         138.6444  145.5435  155.1477 C.3     1  UNL1        0.0719
      3 C         139.7892  144.9449  155.9100 C.3     1  UNL1        0.0196
      4 C         139.7043  143.5306  156.4027 C.3     1  UNL1        0.0017
      5 C         138.4747  142.7151  156.1329 C.3     1  UNL1        0.0015
      6 C         137.3299  143.3137  155.3706 C.3     1  UNL1        0.0017
      7 C         137.4148  144.7280  154.8780 C.3     1  UNL1        0.0196
      8 O         138.8706  147.8037  157.1075 O.2     1  UNL1       -0.2668
      9 C         138.8424  148.0878  155.6350 C.2     1  UNL1        0.2805
     10 N         138.7293  146.9578  154.6551 N.am    1  UNL1       -0.3000
     11 H         138.7108  147.1444  153.6886 H       1  UNL1        0.1498
     12 C         138.9273  149.5021  155.1423 C.ar    1  UNL1        0.1985
     13 C         138.5055  150.7263  155.8993 C.ar    1  UNL1        0.0454
     14 C         138.7664  151.9212  155.0309 C.ar    1  UNL1        0.0440
     15 C         139.3494  151.4354  153.7370 C.ar    1  UNL1        0.1798
     16 O         139.4488  149.9403  153.8059 O.2     1  UNL1       -0.4458
     17 C         137.5952  140.9821  157.8572 C.3     1  UNL1        0.0722
     18 N         138.2663  140.9631  159.1986 N.3     1  UNL1       -0.2698
     19 C         138.4068  142.2327  159.9850 C.3     1  UNL1        0.0939
     20 C         139.0779  142.2137  161.3264 C.3     1  UNL1        0.1095
     21 N         139.6085  140.9250  161.8814 N.pl3   1  UNL1       -0.2899
     22 C         139.4680  139.6556  161.0949 C.3     1  UNL1        0.1095
     23 C         138.7969  139.6746  159.7536 C.3     1  UNL1        0.0939
     24 C         140.2796  140.9060  163.2227 C.ar    1  UNL1        0.1400
     25 N         141.6574  141.4153  163.5265 N.ar    1  UNL1       -0.1943
     26 S         141.9200  141.1984  164.9874 S.2     1  UNL1        0.0144
     27 C         140.7045  140.5552  165.5864 C.ar    1  UNL1        0.0502
     28 C         140.3899  140.1106  166.9840 C.ar    1  UNL1        0.0080
     29 C         139.0615  139.4854  167.2910 C.ar    1  UNL1        0.0006
     30 C         138.0476  139.3047  166.2004 C.ar    1  UNL1        0.0001
     31 C         138.3622  139.7493  164.8027 C.ar    1  UNL1        0.0033
     32 C         139.6907  140.3745  164.4958 C.ar    1  UNL1        0.0396
@<TRIPOS>BOND
     1     8     9    2
     2     9    10   am
     3     2    10    1
     4     2     3    1
     5     3     4    1
     6     4     5    1
     7     5     1    1
     8     1    17    1
     9    17    18    1
    10    18    19    1
    11    19    20    1
    12    20    21    1
    13    21    24    1
    14    24    25   ar
    15    25    26   ar
    16    26    27   ar
    17    27    28   ar
    18    28    29   ar
    19    29    30   ar
    20    30    31   ar
    21    31    32   ar
    22    21    22    1
    23    22    23    1
    24     5     6    1
    25     6     7    1
    26     9    12    1
    27    12    13   ar
    28    13    14   ar
    29    14    15   ar
    30    15    16   ar
    31     7     2    1
    32    16    12   ar
    33    23    18    1
    34    32    24   ar
    35    32    27   ar
    36    10    11    1
@<TRIPOS>MOLECULE
*****
 32 36 0 0 0
SMALL
GASTEIGER

@<TRIPOS>ATOM
      1 C         138.6937  141.6054  154.4882 C.3     1  UNL1        0.0173
      2 C         134.5698  140.0353  155.3704 C.3     1  UNL1        0.0719
      3 C         135.4656  139.2979  154.4197 C.3     1  UNL1        0.0196
      4 C         136.8402  139.8213  154.1256 C.3     1  UNL1        0.0017
      5 C         137.3190  141.0820  154.7823 C.3     1  UNL1        0.0015
      6 C         136.4233  141.8193  155.7331 C.3     1  UNL1        0.0017
      7 C         135.0487  141.2960  156.0272 C.3     1  UNL1        0.0196
      8 O         133.8703  139.1321  158.1445 O.2     1  UNL1       -0.2668
      9 C         132.8455  139.0604  157.0515 C.2     1  UNL1        0.2805
     10 N         133.1952  139.5119  155.6645 N.am    1  UNL1       -0.3000
     11 H         132.5225  139.4648  154.9472 H       1  UNL1        0.1498
     12 C         131.4708  138.5370  157.3455 C.ar    1  UNL1        0.1985
     13 C         130.4676  138.0749  156.3308 C.ar    1  UNL1        0.0454
     14 C         129.2348  137.6362  157.0641 C.ar    1  UNL1        0.0440
     15 C         129.4760  137.8272  158.5321 C.ar    1  UNL1        0.1798
     16 O         130.8580  138.3840  158.7061 O.2     1  UNL1       -0.4458
     17 C         139.8093  141.3725  155.4635 C.3     1  UNL1        0.0722
     18 N         139.8205  142.0966  156.7771 N.3     1  UNL1       -0.2698
     19 C         139.9641  143.5893  156.8096 C.3     1  UNL1        0.0939
     20 C         139.9753  144.3133  158.1232 C.3     1  UNL1        0.1095
     21 N         139.8429  143.5446  159.4045 N.pl3   1  UNL1       -0.2899
     22 C         139.6993  142.0519  159.3720 C.3     1  UNL1        0.1095
     23 C         139.6881  141.3279  158.0584 C.3     1  UNL1        0.0939
     24 C         139.8541  144.2686  160.7181 C.ar    1  UNL1        0.1400
     25 N         140.6488  145.4995  161.0397 N.ar    1  UNL1       -0.1943
     26 S         140.3584  145.8804  162.4612 S.2     1  UNL1        0.0144
     27 C         139.3842  144.8850  163.0181 C.ar    1  UNL1        0.0502
     28 C         138.7407  144.7570  164.3669 C.ar    1  UNL1        0.0080
     29 C         137.7855  143.6329  164.6385 C.ar    1  UNL1        0.0006
     30 C         137.4738  142.6367  163.5613 C.ar    1  UNL1        0.0001
     31 C         138.1174  142.7647  162.2124 C.ar    1  UNL1        0.0033
     32 C         139.0726  143.8889  161.9408 C.ar    1  UNL1        0.0396
@<TRIPOS>BOND
     1     8     9    2
     2     9    10   am
     3     2    10    1
     4     2     3    1
     5     3     4    1
     6     4     5    1
     7     5     1    1
     8     1    17    1
     9    17    18    1
    10    18    19    1
    11    19    20    1
    12    20    21    1
    13    21    24    1
    14    24    25   ar
    15    25    26   ar
    16    26    27   ar
    17    27    28   ar
    18    28    29   ar
    19    29    30   ar
    20    30    31   ar
    21    31    32   ar
    22    21    22    1
    23    22    23    1
    24     5     6    1
    25     6     7    1
    26     9    12    1
    27    12    13   ar
    28    13    14   ar
    29    14    15   ar
    30    15    16   ar
    31     7     2    1
    32    16    12   ar
    33    23    18    1
    34    32    24   ar
    35    32    27   ar
    36    10    11    1
