@<TRIPOS>MOLECULE
*****
 19 20 0 0 0
SMALL
GASTEIGER

@<TRIPOS>ATOM
      1 C         140.5641  140.5624  167.3210 C.ar    1  UNL1        0.0511
      2 C         141.9658  140.1639  166.9654 C.ar    1  UNL1        0.0163
      3 C         142.8468  139.5207  167.9951 C.ar    1  UNL1        0.0253
      4 C         142.3260  139.2762  169.3804 C.ar    1  UNL1        0.1365
      5 C         140.9244  139.6747  169.7359 C.ar    1  UNL1        0.1541
      6 O         140.4036  139.4301  171.1213 O.3     1  UNL1       -0.5039
      7 C         140.0434  140.3178  168.7062 C.ar    1  UNL1        0.0527
      8 H         140.9539  139.0284  171.7645 H       1  UNL1        0.2923
      9 C         138.6198  140.4000  165.6054 C.3     1  UNL1        0.1122
     10 N         139.6832  141.2055  166.2912 N.pl3   1  UNL1       -0.3040
     11 C         139.8656  142.6541  165.9474 C.3     1  UNL1        0.1122
     12 N         143.2070  138.6331  170.4101 N.2     1  UNL1       -0.1435
     13 N         143.6983  137.2305  170.2064 N.2     1  UNL1       -0.1284
     14 C         144.5792  136.5874  171.2361 C.ar    1  UNL1        0.1838
     15 C         144.4456  135.1221  171.5278 C.ar    1  UNL1        0.0406
     16 C         145.3266  134.4790  172.5575 C.ar    1  UNL1        0.0048
     17 C         146.3411  135.3012  173.2956 C.ar    1  UNL1        0.0208
     18 C         146.4747  136.7665  173.0040 C.ar    1  UNL1        0.1006
     19 N         145.5937  137.4096  171.9742 N.ar    1  UNL1       -0.2236
@<TRIPOS>BOND
     1     9    10    1
     2    10    11    1
     3    10     1    1
     4     1     2   ar
     5     2     3   ar
     6     3     4   ar
     7     4    12    1
     8    12    13    2
     9    13    14    1
    10    14    15   ar
    11    15    16   ar
    12    16    17   ar
    13    17    18   ar
    14    18    19   ar
    15     4     5   ar
    16     5     6    1
    17     5     7   ar
    18     7     1   ar
    19    19    14   ar
    20     6     8    1
@<TRIPOS>MOLECULE
*****
 19 20 0 0 0
SMALL
GASTEIGER

@<TRIPOS>ATOM
      1 C         140.4658  141.8594  167.4163 C.ar    1  UNL1        0.0511
      2 C         139.7346  140.5840  167.1187 C.ar    1  UNL1        0.0163
      3 C         139.0501  139.8364  168.2244 C.ar    1  UNL1        0.0253
      4 C         139.0969  140.3642  169.6277 C.ar    1  UNL1        0.1365
      5 C         139.8281  141.6396  169.9252 C.ar    1  UNL1        0.1541
      6 O         139.8749  142.1675  171.3286 O.3     1  UNL1       -0.5039
      7 C         140.5125  142.3872  168.8195 C.ar    1  UNL1        0.0527
      8 H         139.4473  141.7005  172.0193 H       1  UNL1        0.2923
      9 C         142.6264  142.4466  166.0984 C.3     1  UNL1        0.1122
     10 N         141.1503  142.6071  166.3106 N.pl3   1  UNL1       -0.3040
     11 C         140.3585  143.5152  165.4170 C.3     1  UNL1        0.1122
     12 N         138.4124  139.6166  170.7334 N.2     1  UNL1       -0.1435
     13 N         137.1738  138.8209  170.4460 N.2     1  UNL1       -0.1284
     14 C         136.4893  138.0732  171.5518 C.ar    1  UNL1        0.1838
     15 C         135.2472  138.6334  172.1791 C.ar    1  UNL1        0.0406
     16 C         134.5628  137.8858  173.2848 C.ar    1  UNL1        0.0048
     17 C         135.1204  136.5780  173.7632 C.ar    1  UNL1        0.0208
     18 C         136.3624  136.0179  173.1358 C.ar    1  UNL1        0.1006
     19 N         137.0469  136.7655  172.0301 N.ar    1  UNL1       -0.2236
@<TRIPOS>BOND
     1     9    10    1
     2    10    11    1
     3    10     1    1
     4     1     2   ar
     5     2     3   ar
     6     3     4   ar
     7     4    12    1
     8    12    13    2
     9    13    14    1
    10    14    15   ar
    11    15    16   ar
    12    16    17   ar
    13    17    18   ar
    14    18    19   ar
    15     4     5   ar
    16     5     6    1
    17     5     7   ar
    18     7     1   ar
    19    19    14   ar
    20     6     8    1
@<TRIPOS>MOLECULE
*****
 19 20 0 0 0
SMALL
GASTEIGER

@<TRIPOS>ATOM
      1 C         140.6090  140.4309  167.3316 C.ar    1  UNL1        0.0511
      2 C         140.3104  140.6058  168.7911 C.ar    1  UNL1        0.0163
      3 C         141.2076  139.9841  169.8199 C.ar    1  UNL1        0.0253
      4 C         142.4033  139.1874  169.3893 C.ar    1  UNL1        0.1365
      5 C         142.7018  139.0124  167.9298 C.ar    1  UNL1        0.1541
      6 O         143.8976  138.2157  167.4991 O.3     1  UNL1       -0.5039
      7 C         141.8047  139.6342  166.9009 C.ar    1  UNL1        0.0527
      8 H         144.4580  137.8274  168.1418 H       1  UNL1        0.2923
      9 C         139.8904  142.4929  165.9238 C.3     1  UNL1        0.1122
     10 N         139.7118  141.0526  166.3027 N.pl3   1  UNL1       -0.3040
     11 C         138.6360  140.2340  165.6527 C.3     1  UNL1        0.1122
     12 N         143.3004  138.5657  170.4182 N.2     1  UNL1       -0.1435
     13 N         143.6934  137.1232  170.2973 N.2     1  UNL1       -0.1284
     14 C         144.5905  136.5015  171.3262 C.ar    1  UNL1        0.1838
     15 C         145.5245  137.3616  172.1249 C.ar    1  UNL1        0.0406
     16 C         146.4217  136.7399  173.1538 C.ar    1  UNL1        0.0048
     17 C         146.3849  135.2580  173.3839 C.ar    1  UNL1        0.0208
     18 C         145.4509  134.3980  172.5852 C.ar    1  UNL1        0.1006
     19 N         144.5538  135.0197  171.5563 N.ar    1  UNL1       -0.2236
@<TRIPOS>BOND
     1     9    10    1
     2    10    11    1
     3    10     1    1
     4     1     2   ar
     5     2     3   ar
     6     3     4   ar
     7     4    12    1
     8    12    13    2
     9    13    14    1
    10    14    15   ar
    11    15    16   ar
    12    16    17   ar
    13    17    18   ar
    14    18    19   ar
    15     4     5   ar
    16     5     6    1
    17     5     7   ar
    18     7     1   ar
    19    19    14   ar
    20     6     8    1
@<TRIPOS>MOLECULE
*****
 19 20 0 0 0
SMALL
GASTEIGER

@<TRIPOS>ATOM
      1 C         139.1594  139.8452  160.6137 C.ar    1  UNL1        0.0511
      2 C         140.3381  139.6004  161.5085 C.ar    1  UNL1        0.0163
      3 C         140.2537  139.9346  162.9684 C.ar    1  UNL1        0.0253
      4 C         138.9906  140.5137  163.5334 C.ar    1  UNL1        0.1365
      5 C         137.8119  140.7585  162.6385 C.ar    1  UNL1        0.1541
      6 O         136.5487  141.3375  163.2035 O.3     1  UNL1       -0.5039
      7 C         137.8964  140.4242  161.1787 C.ar    1  UNL1        0.0527
      8 H         136.4960  141.5463  164.1154 H       1  UNL1        0.2923
      9 C         140.1540  138.4138  158.6871 C.3     1  UNL1        0.1122
     10 N         139.2439  139.5109  159.1538 N.pl3   1  UNL1       -0.3040
     11 C         138.4181  140.2737  158.1608 C.3     1  UNL1        0.1122
     12 N         138.9061  140.8479  164.9932 N.2     1  UNL1       -0.1435
     13 N         140.1596  140.9749  165.8073 N.2     1  UNL1       -0.1284
     14 C         140.0751  141.3091  167.2671 C.ar    1  UNL1        0.1838
     15 C         140.5101  142.6598  167.7537 C.ar    1  UNL1        0.0406
     16 C         140.4256  142.9940  169.2135 C.ar    1  UNL1        0.0048
     17 C         139.9063  141.9776  170.1868 C.ar    1  UNL1        0.0208
     18 C         139.4714  140.6271  169.7003 C.ar    1  UNL1        0.1006
     19 N         139.5558  140.2928  168.2404 N.ar    1  UNL1       -0.2236
@<TRIPOS>BOND
     1     9    10    1
     2    10    11    1
     3    10     1    1
     4     1     2   ar
     5     2     3   ar
     6     3     4   ar
     7     4    12    1
     8    12    13    2
     9    13    14    1
    10    14    15   ar
    11    15    16   ar
    12    16    17   ar
    13    17    18   ar
    14    18    19   ar
    15     4     5   ar
    16     5     6    1
    17     5     7   ar
    18     7     1   ar
    19    19    14   ar
    20     6     8    1
@<TRIPOS>MOLECULE
*****
 19 20 0 0 0
SMALL
GASTEIGER

@<TRIPOS>ATOM
      1 C         143.5857  142.8517  160.6026 C.ar    1  UNL1        0.0511
      2 C         142.3643  142.9266  161.4700 C.ar    1  UNL1        0.0163
      3 C         142.4668  142.6298  162.9368 C.ar    1  UNL1        0.0253
      4 C         143.7906  142.2582  163.5361 C.ar    1  UNL1        0.1365
      5 C         145.0120  142.1833  162.6687 C.ar    1  UNL1        0.1541
      6 O         146.3360  141.8117  163.2680 O.3     1  UNL1       -0.5039
      7 C         144.9096  142.4801  161.2019 C.ar    1  UNL1        0.0527
      8 H         146.4000  141.6263  164.1842 H       1  UNL1        0.2923
      9 C         144.5245  142.6267  158.1905 C.3     1  UNL1        0.1122
     10 N         143.4832  143.1484  159.1358 N.pl3   1  UNL1       -0.3040
     11 C         142.3396  143.9669  158.6143 C.3     1  UNL1        0.1122
     12 N         143.8931  141.9615  165.0029 N.2     1  UNL1       -0.1435
     13 N         142.6769  141.5303  165.7677 N.2     1  UNL1       -0.1284
     14 C         142.7793  141.2336  167.2344 C.ar    1  UNL1        0.1838
     15 C         143.3030  142.2773  168.1760 C.ar    1  UNL1        0.0406
     16 C         143.4055  141.9806  169.6428 C.ar    1  UNL1        0.0048
     17 C         142.9843  140.6401  170.1680 C.ar    1  UNL1        0.0208
     18 C         142.4607  139.5965  169.2264 C.ar    1  UNL1        0.1006
     19 N         142.3582  139.8932  167.7597 N.ar    1  UNL1       -0.2236
@<TRIPOS>BOND
     1     9    10    1
     2    10    11    1
     3    10     1    1
     4     1     2   ar
     5     2     3   ar
     6     3     4   ar
     7     4    12    1
     8    12    13    2
     9    13    14    1
    10    14    15   ar
    11    15    16   ar
    12    16    17   ar
    13    17    18   ar
    14    18    19   ar
    15     4     5   ar
    16     5     6    1
    17     5     7   ar
    18     7     1   ar
    19    19    14   ar
    20     6     8    1
@<TRIPOS>MOLECULE
*****
 19 20 0 0 0
SMALL
GASTEIGER

@<TRIPOS>ATOM
      1 C         141.0265  144.0278  163.4560 C.ar    1  UNL1        0.0511
      2 C         142.0778  143.5087  162.5204 C.ar    1  UNL1        0.0163
      3 C         142.1590  144.0340  161.1177 C.ar    1  UNL1        0.0253
      4 C         141.1889  145.0783  160.6506 C.ar    1  UNL1        0.1365
      5 C         140.1376  145.5974  161.5862 C.ar    1  UNL1        0.1541
      6 O         139.1674  146.6418  161.1191 O.3     1  UNL1       -0.5039
      7 C         140.0564  145.0721  162.9889 C.ar    1  UNL1        0.0527
      8 H         139.2181  146.9699  160.2429 H       1  UNL1        0.2923
      9 C         142.1249  142.8039  165.4673 C.3     1  UNL1        0.1122
     10 N         140.9454  143.5025  164.8586 N.pl3   1  UNL1       -0.3040
     11 C         139.6846  143.6758  165.6526 C.3     1  UNL1        0.1122
     12 N         141.2701  145.6036  159.2479 N.2     1  UNL1       -0.1435
     13 N         140.0333  145.6792  158.4026 N.2     1  UNL1       -0.1284
     14 C         140.1144  146.2045  157.0000 C.ar    1  UNL1        0.1838
     15 C         139.2200  147.3282  156.5670 C.ar    1  UNL1        0.0406
     16 C         139.3012  147.8535  155.1643 C.ar    1  UNL1        0.0048
     17 C         140.2768  147.2550  154.1946 C.ar    1  UNL1        0.0208
     18 C         141.1711  146.1314  154.6276 C.ar    1  UNL1        0.1006
     19 N         141.0900  145.6061  156.0303 N.ar    1  UNL1       -0.2236
@<TRIPOS>BOND
     1     9    10    1
     2    10    11    1
     3    10     1    1
     4     1     2   ar
     5     2     3   ar
     6     3     4   ar
     7     4    12    1
     8    12    13    2
     9    13    14    1
    10    14    15   ar
    11    15    16   ar
    12    16    17   ar
    13    17    18   ar
    14    18    19   ar
    15     4     5   ar
    16     5     6    1
    17     5     7   ar
    18     7     1   ar
    19    19    14   ar
    20     6     8    1
@<TRIPOS>MOLECULE
*****
 19 20 0 0 0
SMALL
GASTEIGER

@<TRIPOS>ATOM
      1 C         140.8214  146.0404  156.2643 C.ar    1  UNL1        0.0511
      2 C         142.0909  145.2422  156.2269 C.ar    1  UNL1        0.0163
      3 C         142.5931  144.5730  157.4719 C.ar    1  UNL1        0.0253
      4 C         141.8258  144.7020  158.7543 C.ar    1  UNL1        0.1365
      5 C         140.5564  145.5002  158.7917 C.ar    1  UNL1        0.1541
      6 O         139.7891  145.6292  160.0742 O.3     1  UNL1       -0.5039
      7 C         140.0542  146.1693  157.5467 C.ar    1  UNL1        0.0527
      8 H         140.1028  145.2112  160.8519 H       1  UNL1        0.2923
      9 C         140.8790  146.3234  153.6824 C.3     1  UNL1        0.1122
     10 N         140.3193  146.7096  155.0193 N.pl3   1  UNL1       -0.3040
     11 C         139.2573  147.7649  155.1113 C.3     1  UNL1        0.1122
     12 N         142.3280  144.0328  159.9993 N.2     1  UNL1       -0.1435
     13 N         142.2390  144.7402  161.3190 N.2     1  UNL1       -0.1284
     14 C         142.7412  144.0710  162.5640 C.ar    1  UNL1        0.1838
     15 C         143.6850  144.7964  163.4768 C.ar    1  UNL1        0.0406
     16 C         144.1872  144.1272  164.7218 C.ar    1  UNL1        0.0048
     17 C         143.7456  142.7326  165.0540 C.ar    1  UNL1        0.0208
     18 C         142.8019  142.0073  164.1412 C.ar    1  UNL1        0.1006
     19 N         142.2997  142.6765  162.8962 N.ar    1  UNL1       -0.2236
@<TRIPOS>BOND
     1     9    10    1
     2    10    11    1
     3    10     1    1
     4     1     2   ar
     5     2     3   ar
     6     3     4   ar
     7     4    12    1
     8    12    13    2
     9    13    14    1
    10    14    15   ar
    11    15    16   ar
    12    16    17   ar
    13    17    18   ar
    14    18    19   ar
    15     4     5   ar
    16     5     6    1
    17     5     7   ar
    18     7     1   ar
    19    19    14   ar
    20     6     8    1
@<TRIPOS>MOLECULE
*****
 19 20 0 0 0
SMALL
GASTEIGER

@<TRIPOS>ATOM
      1 C         138.9030  139.0025  164.8829 C.ar    1  UNL1        0.0511
      2 C         137.9755  139.6504  163.8981 C.ar    1  UNL1        0.0163
      3 C         138.1283  139.3761  162.4314 C.ar    1  UNL1        0.0253
      4 C         139.2087  138.4540  161.9494 C.ar    1  UNL1        0.1365
      5 C         140.1362  137.8061  162.9341 C.ar    1  UNL1        0.1541
      6 O         141.2167  136.8839  162.4522 O.3     1  UNL1       -0.5039
      7 C         139.9834  138.0804  164.4009 C.ar    1  UNL1        0.0527
      8 H         141.3121  136.7125  161.5359 H       1  UNL1        0.2923
      9 C         139.6884  140.2239  167.0373 C.3     1  UNL1        0.1122
     10 N         138.7502  139.2768  166.3497 N.pl3   1  UNL1       -0.3040
     11 C         137.6592  138.6040  167.1288 C.3     1  UNL1        0.1122
     12 N         139.3615  138.1797  160.4826 N.2     1  UNL1       -0.1435
     13 N         140.6257  138.5679  159.7747 N.2     1  UNL1       -0.1284
     14 C         140.7785  138.2936  158.3080 C.ar    1  UNL1        0.1838
     15 C         142.1247  138.4176  157.6580 C.ar    1  UNL1        0.0406
     16 C         142.2776  138.1433  156.1913 C.ar    1  UNL1        0.0048
     17 C         141.0841  137.7450  155.3744 C.ar    1  UNL1        0.0208
     18 C         139.7380  137.6210  156.0243 C.ar    1  UNL1        0.1006
     19 N         139.5852  137.8953  157.4911 N.ar    1  UNL1       -0.2236
@<TRIPOS>BOND
     1     9    10    1
     2    10    11    1
     3    10     1    1
     4     1     2   ar
     5     2     3   ar
     6     3     4   ar
     7     4    12    1
     8    12    13    2
     9    13    14    1
    10    14    15   ar
    11    15    16   ar
    12    16    17   ar
    13    17    18   ar
    14    18    19   ar
    15     4     5   ar
    16     5     6    1
    17     5     7   ar
    18     7     1   ar
    19    19    14   ar
    20     6     8    1
@<TRIPOS>MOLECULE
*****
 19 20 0 0 0
SMALL
GASTEIGER

@<TRIPOS>ATOM
      1 C         141.1295  145.1050  155.6750 C.ar    1  UNL1        0.0511
      2 C         139.9266  144.2134  155.7643 C.ar    1  UNL1        0.0163
      3 C         139.3942  143.8042  157.1056 C.ar    1  UNL1        0.0253
      4 C         140.0647  144.2866  158.3576 C.ar    1  UNL1        0.1365
      5 C         141.2676  145.1782  158.2683 C.ar    1  UNL1        0.1541
      6 O         141.9382  145.6607  159.5204 O.3     1  UNL1       -0.5039
      7 C         141.8000  145.5875  156.9270 C.ar    1  UNL1        0.0527
      8 H         141.6056  145.4051  160.3583 H       1  UNL1        0.2923
      9 C         142.8968  144.8622  153.7862 C.3     1  UNL1        0.1122
     10 N         141.6618  145.5142  154.3337 N.pl3   1  UNL1       -0.3040
     11 C         140.9593  146.5754  153.5399 C.3     1  UNL1        0.1122
     12 N         139.5324  143.8774  159.6989 N.2     1  UNL1       -0.1435
     13 N         139.5643  144.8442  160.8453 N.2     1  UNL1       -0.1284
     14 C         139.0319  144.4350  162.1866 C.ar    1  UNL1        0.1838
     15 C         138.0450  143.3102  162.2905 C.ar    1  UNL1        0.0406
     16 C         137.5126  142.9010  163.6318 C.ar    1  UNL1        0.0048
     17 C         137.9672  143.6166  164.8693 C.ar    1  UNL1        0.0208
     18 C         138.9541  144.7414  164.7654 C.ar    1  UNL1        0.1006
     19 N         139.4865  145.1506  163.4241 N.ar    1  UNL1       -0.2236
@<TRIPOS>BOND
     1     9    10    1
     2    10    11    1
     3    10     1    1
     4     1     2   ar
     5     2     3   ar
     6     3     4   ar
     7     4    12    1
     8    12    13    2
     9    13    14    1
    10    14    15   ar
    11    15    16   ar
    12    16    17   ar
    13    17    18   ar
    14    18    19   ar
    15     4     5   ar
    16     5     6    1
    17     5     7   ar
    18     7     1   ar
    19    19    14   ar
    20     6     8    1
