@<TRIPOS>MOLECULE
*****
 24 26 0 0 0
SMALL
GASTEIGER

@<TRIPOS>ATOM
      1 C         141.1723  140.4216  168.7394 C.3     1  UNL1        0.0489
      2 C         140.1584  140.5942  169.8313 C.3     1  UNL1        0.0236
      3 C         140.6040  140.6873  171.2606 C.3     1  UNL1        0.0690
      4 N         142.0633  140.6077  171.5980 N.3     1  UNL1       -0.2974
      5 C         143.0772  140.4351  170.5061 C.3     1  UNL1        0.0690
      6 C         142.6317  140.3421  169.0768 C.3     1  UNL1        0.0236
      7 H         142.1762  139.8170  172.2323 H       1  UNL1        0.1232
      8 C         141.7489  140.2567  167.3645 C.ar    1  UNL1       -0.0204
      9 C         142.6565  139.1006  167.0655 C.ar    1  UNL1       -0.0042
     10 C         143.2330  138.9357  165.6906 C.ar    1  UNL1       -0.0003
     11 C         142.9019  139.9271  164.6146 C.ar    1  UNL1       -0.0000
     12 C         141.9943  141.0832  164.9136 C.ar    1  UNL1       -0.0003
     13 C         141.4178  141.2481  166.2885 C.ar    1  UNL1       -0.0042
     14 C         139.9132  140.4439  167.9245 C.3     1  UNL1        0.1466
     15 O         138.8216  139.4537  168.2035 O.3     1  UNL1       -0.3487
     16 C         138.0445  138.8546  167.0690 C.3     1  UNL1        0.1687
     17 CL        140.9528  137.0780  163.1466 Cl      1  UNL1       -0.0613
     18 C         140.0030  138.0979  163.7013 C.ar    1  UNL1        0.1390
     19 C         139.4986  137.9663  165.1078 C.ar    1  UNL1        0.0290
     20 C         138.5488  138.9862  165.6624 C.ar    1  UNL1        0.0120
     21 C         138.1033  140.1376  164.8106 C.ar    1  UNL1        0.0290
     22 C         138.6076  140.2692  163.4041 C.ar    1  UNL1        0.1390
     23 CL        138.1621  141.4207  162.5522 Cl      1  UNL1       -0.0613
     24 N         139.5575  139.2493  162.8494 N.ar    1  UNL1       -0.2226
@<TRIPOS>BOND
     1    17    18    1
     2    18    19   ar
     3    19    20   ar
     4    20    16    1
     5    16    15    1
     6    15    14    1
     7    14     1    1
     8     1     8    1
     9     8     9   ar
    10     9    10   ar
    11    10    11   ar
    12    11    12   ar
    13    12    13   ar
    14     1     2    1
    15     2     3    1
    16     3     4    1
    17     4     5    1
    18     5     6    1
    19    20    21   ar
    20    21    22   ar
    21    22    23    1
    22    22    24   ar
    23    24    18   ar
    24     6     1    1
    25    13     8   ar
    26     4     7    1
@<TRIPOS>MOLECULE
*****
 24 26 0 0 0
SMALL
GASTEIGER

@<TRIPOS>ATOM
      1 C         141.1643  140.4135  168.7287 C.3     1  UNL1        0.0489
      2 C         140.1456  140.5881  169.8158 C.3     1  UNL1        0.0236
      3 C         140.5852  140.6898  171.2463 C.3     1  UNL1        0.0690
      4 N         142.0435  140.6169  171.5898 N.3     1  UNL1       -0.2974
      5 C         143.0622  140.4423  170.5027 C.3     1  UNL1        0.0690
      6 C         142.6226  140.3406  169.0721 C.3     1  UNL1        0.0236
      7 H         142.1566  139.8298  172.2285 H       1  UNL1        0.1232
      8 C         141.7467  140.2437  167.3569 C.ar    1  UNL1       -0.0204
      9 C         141.4173  141.2290  166.2750 C.ar    1  UNL1       -0.0042
     10 C         141.9998  141.0592  164.9032 C.ar    1  UNL1       -0.0003
     11 C         142.9116  139.9040  164.6133 C.ar    1  UNL1       -0.0000
     12 C         143.2410  138.9186  165.6952 C.ar    1  UNL1       -0.0003
     13 C         142.6586  139.0884  167.0670 C.ar    1  UNL1       -0.0042
     14 C         139.9082  140.4274  167.9089 C.3     1  UNL1        0.1466
     15 O         138.8144  139.4419  168.1957 O.3     1  UNL1       -0.3487
     16 C         138.0489  138.8209  167.0650 C.3     1  UNL1        0.1687
     17 CL        138.1076  141.4221  162.5672 Cl      1  UNL1       -0.0613
     18 C         138.5707  140.2687  163.4069 C.ar    1  UNL1        0.1390
     19 C         138.0783  140.1215  164.8161 C.ar    1  UNL1        0.0290
     20 C         138.5414  138.9680  165.6558 C.ar    1  UNL1        0.0120
     21 C         139.4970  137.9618  165.0863 C.ar    1  UNL1        0.0290
     22 C         139.9894  138.1090  163.6772 C.ar    1  UNL1        0.1390
     23 CL        140.9450  137.1027  163.1076 Cl      1  UNL1       -0.0613
     24 N         139.5263  139.2624  162.8375 N.ar    1  UNL1       -0.2226
@<TRIPOS>BOND
     1    17    18    1
     2    18    19   ar
     3    19    20   ar
     4    20    16    1
     5    16    15    1
     6    15    14    1
     7    14     1    1
     8     1     8    1
     9     8     9   ar
    10     9    10   ar
    11    10    11   ar
    12    11    12   ar
    13    12    13   ar
    14     1     2    1
    15     2     3    1
    16     3     4    1
    17     4     5    1
    18     5     6    1
    19    20    21   ar
    20    21    22   ar
    21    22    23    1
    22    22    24   ar
    23    24    18   ar
    24     6     1    1
    25    13     8   ar
    26     4     7    1
@<TRIPOS>MOLECULE
*****
 24 26 0 0 0
SMALL
GASTEIGER

@<TRIPOS>ATOM
      1 C         141.5439  141.5869  168.2564 C.3     1  UNL1        0.0489
      2 C         142.8894  141.8933  168.8443 C.3     1  UNL1        0.0236
      3 C         143.0013  142.8198  170.0187 C.3     1  UNL1        0.0690
      4 N         141.7678  143.4397  170.6052 N.3     1  UNL1       -0.2974
      5 C         140.4223  143.1332  170.0173 C.3     1  UNL1        0.0690
      6 C         140.3104  142.2067  168.8428 C.3     1  UNL1        0.0236
      7 H         141.8907  144.4506  170.5482 H       1  UNL1        0.1232
      8 C         140.5011  140.9935  167.3562 C.ar    1  UNL1       -0.0204
      9 C         139.6133  139.8942  167.8595 C.ar    1  UNL1       -0.0042
     10 C         138.5705  139.3008  166.9593 C.ar    1  UNL1       -0.0003
     11 C         138.4155  139.8068  165.5557 C.ar    1  UNL1       -0.0000
     12 C         139.3033  140.9060  165.0523 C.ar    1  UNL1       -0.0003
     13 C         140.3461  141.4994  165.9526 C.ar    1  UNL1       -0.0042
     14 C         142.4154  140.7609  167.3573 C.3     1  UNL1        0.1466
     15 O         143.0025  139.4743  167.8570 O.3     1  UNL1       -0.3487
     16 C         143.3961  138.4019  166.8849 C.3     1  UNL1        0.1687
     17 CL        144.3755  139.9383  162.0186 Cl      1  UNL1       -0.0613
     18 C         143.4717  139.2727  163.0137 C.ar    1  UNL1        0.1390
     19 C         143.8858  139.1701  164.4517 C.ar    1  UNL1        0.0290
     20 C         142.9820  138.5045  165.4468 C.ar    1  UNL1        0.0120
     21 C         141.6641  137.9415  165.0038 C.ar    1  UNL1        0.0290
     22 C         141.2500  138.0441  163.5658 C.ar    1  UNL1        0.1390
     23 CL        139.9321  137.4812  163.1228 Cl      1  UNL1       -0.0613
     24 N         142.1538  138.7097  162.5707 N.ar    1  UNL1       -0.2226
@<TRIPOS>BOND
     1    17    18    1
     2    18    19   ar
     3    19    20   ar
     4    20    16    1
     5    16    15    1
     6    15    14    1
     7    14     1    1
     8     1     8    1
     9     8     9   ar
    10     9    10   ar
    11    10    11   ar
    12    11    12   ar
    13    12    13   ar
    14     1     2    1
    15     2     3    1
    16     3     4    1
    17     4     5    1
    18     5     6    1
    19    20    21   ar
    20    21    22   ar
    21    22    23    1
    22    22    24   ar
    23    24    18   ar
    24     6     1    1
    25    13     8   ar
    26     4     7    1
@<TRIPOS>MOLECULE
*****
 24 26 0 0 0
SMALL
GASTEIGER

@<TRIPOS>ATOM
      1 C         141.6087  141.5755  168.2415 C.3     1  UNL1        0.0489
      2 C         142.9617  141.8641  168.8212 C.3     1  UNL1        0.0236
      3 C         143.0921  142.7820  170.0005 C.3     1  UNL1        0.0690
      4 N         141.8695  143.4111  170.5999 N.3     1  UNL1       -0.2974
      5 C         140.5165  143.1225  170.0202 C.3     1  UNL1        0.0690
      6 C         140.3862  142.2047  168.8409 C.3     1  UNL1        0.0236
      7 H         142.0026  144.4211  170.5482 H       1  UNL1        0.1232
      8 C         140.5530  140.9988  167.3454 C.ar    1  UNL1       -0.0204
      9 C         139.6583  139.9049  167.8481 C.ar    1  UNL1       -0.0042
     10 C         138.6026  139.3282  166.9521 C.ar    1  UNL1       -0.0003
     11 C         138.4417  139.8454  165.5532 C.ar    1  UNL1       -0.0000
     12 C         139.3365  140.9392  165.0505 C.ar    1  UNL1       -0.0003
     13 C         140.3922  141.5160  165.9466 C.ar    1  UNL1       -0.0042
     14 C         142.4647  140.7460  167.3308 C.3     1  UNL1        0.1466
     15 O         143.0633  139.4631  167.8266 O.3     1  UNL1       -0.3487
     16 C         143.4124  138.3740  166.8561 C.3     1  UNL1        0.1687
     17 CL        139.8968  137.4980  163.1314 Cl      1  UNL1       -0.0613
     18 C         141.2267  138.0435  163.5601 C.ar    1  UNL1        0.1390
     19 C         141.6546  137.9360  164.9937 C.ar    1  UNL1        0.0290
     20 C         142.9845  138.4815  165.4224 C.ar    1  UNL1        0.0120
     21 C         143.8866  139.1345  164.4174 C.ar    1  UNL1        0.0290
     22 C         143.4587  139.2419  162.9838 C.ar    1  UNL1        0.1390
     23 CL        144.3607  139.8949  161.9788 Cl      1  UNL1       -0.0613
     24 N         142.1287  138.6964  162.5551 N.ar    1  UNL1       -0.2226
@<TRIPOS>BOND
     1    17    18    1
     2    18    19   ar
     3    19    20   ar
     4    20    16    1
     5    16    15    1
     6    15    14    1
     7    14     1    1
     8     1     8    1
     9     8     9   ar
    10     9    10   ar
    11    10    11   ar
    12    11    12   ar
    13    12    13   ar
    14     1     2    1
    15     2     3    1
    16     3     4    1
    17     4     5    1
    18     5     6    1
    19    20    21   ar
    20    21    22   ar
    21    22    23    1
    22    22    24   ar
    23    24    18   ar
    24     6     1    1
    25    13     8   ar
    26     4     7    1
@<TRIPOS>MOLECULE
*****
 24 26 0 0 0
SMALL
GASTEIGER

@<TRIPOS>ATOM
      1 C         141.9494  141.0417  168.0849 C.3     1  UNL1        0.0489
      2 C         141.1128  141.9370  168.9500 C.3     1  UNL1        0.0236
      3 C         140.8583  141.5716  170.3825 C.3     1  UNL1        0.0690
      4 N         141.4404  140.3109  170.9497 N.3     1  UNL1       -0.2974
      5 C         142.2771  139.4156  170.0845 C.3     1  UNL1        0.0690
      6 C         142.5316  139.7810  168.6521 C.3     1  UNL1        0.0236
      7 H         140.6573  139.7494  171.2840 H       1  UNL1        0.1232
      8 C         142.6709  140.5215  166.8771 C.ar    1  UNL1       -0.0204
      9 C         143.3013  141.4791  165.9098 C.ar    1  UNL1       -0.0042
     10 C         144.0227  140.9589  164.7020 C.ar    1  UNL1       -0.0003
     11 C         144.1138  139.4811  164.4614 C.ar    1  UNL1       -0.0000
     12 C         143.4834  138.5236  165.4286 C.ar    1  UNL1       -0.0003
     13 C         142.7619  139.0437  166.6365 C.ar    1  UNL1       -0.0042
     14 C         141.6178  142.1217  167.0982 C.3     1  UNL1        0.1466
     15 O         140.1852  142.4384  166.7861 O.3     1  UNL1       -0.3487
     16 C         139.5519  141.8966  165.5390 C.3     1  UNL1        0.1687
     17 CL        137.3211  137.4631  167.0780 Cl      1  UNL1       -0.0613
     18 C         138.2388  138.2015  166.1492 C.ar    1  UNL1        0.1390
     19 C         138.4365  139.6798  166.3085 C.ar    1  UNL1        0.0290
     20 C         139.3541  140.4182  165.3796 C.ar    1  UNL1        0.0120
     21 C         140.0740  139.6782  164.2915 C.ar    1  UNL1        0.0290
     22 C         139.8763  138.1999  164.1322 C.ar    1  UNL1        0.1390
     23 CL        140.5962  137.4599  163.0439 Cl      1  UNL1       -0.0613
     24 N         138.9587  137.4615  165.0610 N.ar    1  UNL1       -0.2226
@<TRIPOS>BOND
     1    17    18    1
     2    18    19   ar
     3    19    20   ar
     4    20    16    1
     5    16    15    1
     6    15    14    1
     7    14     1    1
     8     1     8    1
     9     8     9   ar
    10     9    10   ar
    11    10    11   ar
    12    11    12   ar
    13    12    13   ar
    14     1     2    1
    15     2     3    1
    16     3     4    1
    17     4     5    1
    18     5     6    1
    19    20    21   ar
    20    21    22   ar
    21    22    23    1
    22    22    24   ar
    23    24    18   ar
    24     6     1    1
    25    13     8   ar
    26     4     7    1
@<TRIPOS>MOLECULE
*****
 24 26 0 0 0
SMALL
GASTEIGER

@<TRIPOS>ATOM
      1 C         141.8632  141.6759  168.8931 C.3     1  UNL1        0.0489
      2 C         142.3420  140.9104  170.0909 C.3     1  UNL1        0.0236
      3 C         141.6988  141.1306  171.4280 C.3     1  UNL1        0.0690
      4 N         140.5769  142.1164  171.5673 N.3     1  UNL1       -0.2974
      5 C         140.0981  142.8819  170.3695 C.3     1  UNL1        0.0690
      6 C         140.7413  142.6617  169.0324 C.3     1  UNL1        0.0236
      7 H         140.8746  142.8057  172.2576 H       1  UNL1        0.1232
      8 C         141.7619  142.1571  167.4760 C.ar    1  UNL1       -0.0204
      9 C         140.4155  142.3432  166.8416 C.ar    1  UNL1       -0.0042
     10 C         140.3142  142.8244  165.4245 C.ar    1  UNL1       -0.0003
     11 C         141.5594  143.1195  164.6418 C.ar    1  UNL1       -0.0000
     12 C         142.9058  142.9333  165.2762 C.ar    1  UNL1       -0.0003
     13 C         143.0071  142.4521  166.6933 C.ar    1  UNL1       -0.0042
     14 C         142.9500  140.8572  168.2617 C.3     1  UNL1        0.1466
     15 O         142.8875  139.3595  168.3143 O.3     1  UNL1       -0.3487
     16 C         143.2766  138.5500  167.1129 C.3     1  UNL1        0.1687
     17 CL        139.4931  139.5483  163.6940 Cl      1  UNL1       -0.0613
     18 C         140.9526  139.4835  164.0344 C.ar    1  UNL1        0.1390
     19 C         141.3849  139.0492  165.4034 C.ar    1  UNL1        0.0290
     20 C         142.8443  138.9843  165.7437 C.ar    1  UNL1        0.0120
     21 C         143.8714  139.3538  164.7150 C.ar    1  UNL1        0.0290
     22 C         143.4391  139.7882  163.3459 C.ar    1  UNL1        0.1390
     23 CL        144.4663  140.1577  162.3170 Cl      1  UNL1       -0.0613
     24 N         141.9797  139.8530  163.0056 N.ar    1  UNL1       -0.2226
@<TRIPOS>BOND
     1    17    18    1
     2    18    19   ar
     3    19    20   ar
     4    20    16    1
     5    16    15    1
     6    15    14    1
     7    14     1    1
     8     1     8    1
     9     8     9   ar
    10     9    10   ar
    11    10    11   ar
    12    11    12   ar
    13    12    13   ar
    14     1     2    1
    15     2     3    1
    16     3     4    1
    17     4     5    1
    18     5     6    1
    19    20    21   ar
    20    21    22   ar
    21    22    23    1
    22    22    24   ar
    23    24    18   ar
    24     6     1    1
    25    13     8   ar
    26     4     7    1
@<TRIPOS>MOLECULE
*****
 24 26 0 0 0
SMALL
GASTEIGER

@<TRIPOS>ATOM
      1 C         143.5793  140.4056  164.0118 C.3     1  UNL1        0.0489
      2 C         144.6108  141.2736  164.6694 C.3     1  UNL1        0.0236
      3 C         145.6098  142.0164  163.8326 C.3     1  UNL1        0.0690
      4 N         145.5773  141.8912  162.3382 N.3     1  UNL1       -0.2974
      5 C         144.5458  141.0233  161.6806 C.3     1  UNL1        0.0690
      6 C         143.5467  140.2804  162.5174 C.3     1  UNL1        0.0236
      7 H         146.4887  141.5331  162.0528 H       1  UNL1        0.1232
      8 C         142.4191  139.4680  163.8542 C.ar    1  UNL1       -0.0204
      9 C         141.3114  139.7994  162.8986 C.ar    1  UNL1       -0.0042
     10 C         140.1512  138.8619  162.7410 C.ar    1  UNL1       -0.0003
     11 C         140.0987  137.5928  163.5390 C.ar    1  UNL1       -0.0000
     12 C         141.2064  137.2613  164.4946 C.ar    1  UNL1       -0.0003
     13 C         142.3666  138.1989  164.6522 C.ar    1  UNL1       -0.0042
     14 C         143.2089  140.2052  165.4514 C.3     1  UNL1        0.1466
     15 O         143.0262  141.3915  166.3510 O.3     1  UNL1       -0.3487
     16 C         141.7245  141.5958  167.0678 C.3     1  UNL1        0.1687
     17 CL        137.8786  138.1365  166.5760 Cl      1  UNL1       -0.0613
     18 C         138.5162  139.4352  166.1799 C.ar    1  UNL1        0.1390
     19 C         139.8015  139.8662  166.8219 C.ar    1  UNL1        0.0290
     20 C         140.4391  141.1648  166.4258 C.ar    1  UNL1        0.0120
     21 C         139.7914  142.0325  165.3877 C.ar    1  UNL1        0.0290
     22 C         138.5061  141.6015  164.7458 C.ar    1  UNL1        0.1390
     23 CL        137.8583  142.4692  163.7077 Cl      1  UNL1       -0.0613
     24 N         137.8685  140.3028  165.1419 N.ar    1  UNL1       -0.2226
@<TRIPOS>BOND
     1    17    18    1
     2    18    19   ar
     3    19    20   ar
     4    20    16    1
     5    16    15    1
     6    15    14    1
     7    14     1    1
     8     1     8    1
     9     8     9   ar
    10     9    10   ar
    11    10    11   ar
    12    11    12   ar
    13    12    13   ar
    14     1     2    1
    15     2     3    1
    16     3     4    1
    17     4     5    1
    18     5     6    1
    19    20    21   ar
    20    21    22   ar
    21    22    23    1
    22    22    24   ar
    23    24    18   ar
    24     6     1    1
    25    13     8   ar
    26     4     7    1
@<TRIPOS>MOLECULE
*****
 24 26 0 0 0
SMALL
GASTEIGER

@<TRIPOS>ATOM
      1 C         143.4706  142.1973  164.4443 C.3     1  UNL1        0.0489
      2 C         143.4616  143.2241  163.3509 C.3     1  UNL1        0.0236
      3 C         144.5682  143.2513  162.3385 C.3     1  UNL1        0.0690
      4 N         145.6836  142.2517  162.4195 N.3     1  UNL1       -0.2974
      5 C         145.6925  141.2249  163.5129 C.3     1  UNL1        0.0690
      6 C         144.5860  141.1977  164.5253 C.3     1  UNL1        0.0236
      7 H         146.5496  142.7834  162.5078 H       1  UNL1        0.1232
      8 C         143.0402  141.4244  165.6556 C.ar    1  UNL1       -0.0204
      9 C         142.7332  142.1448  166.9349 C.ar    1  UNL1       -0.0042
     10 C         142.3029  141.3719  168.1463 C.ar    1  UNL1       -0.0003
     11 C         142.1794  139.8785  168.0783 C.ar    1  UNL1       -0.0000
     12 C         142.4864  139.1581  166.7990 C.ar    1  UNL1       -0.0003
     13 C         142.9168  139.9310  165.5876 C.ar    1  UNL1       -0.0042
     14 C         142.2057  142.9285  164.7840 C.3     1  UNL1        0.1466
     15 O         141.1583  143.1439  163.7321 O.3     1  UNL1       -0.3487
     16 C         139.7828  142.5745  163.9157 C.3     1  UNL1        0.1687
     17 CL        138.1991  138.9521  167.2877 Cl      1  UNL1       -0.0613
     18 C         138.8200  139.3200  165.9728 C.ar    1  UNL1        0.1390
     19 C         138.9909  140.7633  165.6017 C.ar    1  UNL1        0.0290
     20 C         139.6119  141.1311  164.2868 C.ar    1  UNL1        0.0120
     21 C         140.0619  140.0557  163.3429 C.ar    1  UNL1        0.0290
     22 C         139.8910  138.6125  163.7139 C.ar    1  UNL1        0.1390
     23 CL        140.3411  137.5370  162.7700 Cl      1  UNL1       -0.0613
     24 N         139.2701  138.2446  165.0289 N.ar    1  UNL1       -0.2226
@<TRIPOS>BOND
     1    17    18    1
     2    18    19   ar
     3    19    20   ar
     4    20    16    1
     5    16    15    1
     6    15    14    1
     7    14     1    1
     8     1     8    1
     9     8     9   ar
    10     9    10   ar
    11    10    11   ar
    12    11    12   ar
    13    12    13   ar
    14     1     2    1
    15     2     3    1
    16     3     4    1
    17     4     5    1
    18     5     6    1
    19    20    21   ar
    20    21    22   ar
    21    22    23    1
    22    22    24   ar
    23    24    18   ar
    24     6     1    1
    25    13     8   ar
    26     4     7    1
@<TRIPOS>MOLECULE
*****
 24 26 0 0 0
SMALL
GASTEIGER

@<TRIPOS>ATOM
      1 C         140.0280  143.4511  164.4403 C.3     1  UNL1        0.0489
      2 C         140.6596  144.4799  163.5499 C.3     1  UNL1        0.0236
      3 C         139.8159  145.2495  162.5773 C.3     1  UNL1        0.0690
      4 N         138.3408  144.9904  162.4950 N.3     1  UNL1       -0.2974
      5 C         137.7092  143.9617  163.3854 C.3     1  UNL1        0.0690
      6 C         138.5529  143.1920  164.3580 C.3     1  UNL1        0.0236
      7 H         138.1444  144.7090  161.5345 H       1  UNL1        0.1232
      8 C         139.8924  142.3836  165.4853 C.ar    1  UNL1       -0.0204
      9 C         139.2279  141.0823  165.1463 C.ar    1  UNL1       -0.0042
     10 C         139.0923  140.0148  166.1913 C.ar    1  UNL1       -0.0003
     11 C         139.6213  140.2487  167.5753 C.ar    1  UNL1       -0.0000
     12 C         140.2858  141.5499  167.9143 C.ar    1  UNL1       -0.0003
     13 C         140.4214  142.6174  166.8693 C.ar    1  UNL1       -0.0042
     14 C         141.4560  143.3395  164.8855 C.3     1  UNL1        0.1466
     15 O         142.5621  143.3734  163.8729 O.3     1  UNL1       -0.3487
     16 C         143.3714  142.1393  163.6045 C.3     1  UNL1        0.1687
     17 CL        143.0234  138.9153  167.6647 Cl      1  UNL1       -0.0613
     18 C         142.7730  139.2111  166.2156 C.ar    1  UNL1        0.1390
     19 C         143.1974  140.5273  165.6346 C.ar    1  UNL1        0.0290
     20 C         142.9470  140.8231  164.1856 C.ar    1  UNL1        0.0120
     21 C         142.2722  139.8027  163.3175 C.ar    1  UNL1        0.0290
     22 C         141.8478  138.4866  163.8985 C.ar    1  UNL1        0.1390
     23 CL        141.1730  137.4662  163.0305 Cl      1  UNL1       -0.0613
     24 N         142.0982  138.1908  165.3476 N.ar    1  UNL1       -0.2226
@<TRIPOS>BOND
     1    17    18    1
     2    18    19   ar
     3    19    20   ar
     4    20    16    1
     5    16    15    1
     6    15    14    1
     7    14     1    1
     8     1     8    1
     9     8     9   ar
    10     9    10   ar
    11    10    11   ar
    12    11    12   ar
    13    12    13   ar
    14     1     2    1
    15     2     3    1
    16     3     4    1
    17     4     5    1
    18     5     6    1
    19    20    21   ar
    20    21    22   ar
    21    22    23    1
    22    22    24   ar
    23    24    18   ar
    24     6     1    1
    25    13     8   ar
    26     4     7    1
