@<TRIPOS>MOLECULE
*****
 40 43 0 0 0
SMALL
GASTEIGER

@<TRIPOS>ATOM
      1 O         139.7695  142.9445  159.4917 O.3     1  UNL1       -0.4725
      2 C         140.6411  141.2126  161.2210 C.ar    1  UNL1        0.0874
      3 C         140.4071  140.3464  162.4232 C.ar    1  UNL1        0.0107
      4 C         139.0676  140.3463  163.0982 C.ar    1  UNL1        0.0370
      5 C         137.9620  141.2121  162.5710 C.ar    1  UNL1        0.1367
      6 O         136.6224  141.2119  163.2459 O.3     1  UNL1       -0.5054
      7 C         138.1959  142.0782  161.3689 C.ar    1  UNL1        0.0736
      8 C         139.5355  142.0784  160.6939 C.ar    1  UNL1        0.1460
      9 H         136.4763  140.6709  163.9969 H       1  UNL1        0.2922
     10 N         142.5913  142.5052  160.0916 N.am    1  UNL1       -0.2991
     11 C         141.9807  141.2127  160.5461 C.2     1  UNL1        0.2488
     12 O         142.7095  139.9204  160.3257 O.2     1  UNL1       -0.2700
     13 H         142.1129  143.3534  160.2363 H       1  UNL1        0.1498
     14 C         143.9308  142.5054  159.4167 C.3     1  UNL1        0.1109
     15 C         145.1832  142.3980  160.2353 C.3     1  UNL1        0.1107
     16 C         145.2343  142.4901  164.2025 C.3     1  UNL1        0.0946
     17 C         145.2097  141.9665  162.7972 C.2     1  UNL1        0.2230
     18 O         145.1873  140.4874  162.5482 O.2     1  UNL1       -0.2751
     19 N         145.2077  142.9218  161.6407 N.am    1  UNL1       -0.3026
     20 H         145.2225  143.8925  161.8041 H       1  UNL1        0.1495
     21 C         139.6262  144.4336  159.6009 C.3     1  UNL1        0.2358
     22 C         140.5675  145.2161  160.4680 C.3     1  UNL1        0.1700
     23 O         141.9371  145.5639  159.9648 O.3     1  UNL1       -0.3793
     24 H         142.0517  145.2105  159.0688 H       1  UNL1        0.2106
     25 C         140.1391  145.6507  161.8383 C.3     1  UNL1        0.1056
     26 N         140.3129  144.7264  163.0068 N.3     1  UNL1       -0.2703
     27 C         139.1794  144.5066  163.9643 C.3     1  UNL1        0.0758
     28 C         139.3533  143.5823  165.1328 C.3     1  UNL1        0.0577
     29 C         140.6606  142.8778  165.3438 C.3     1  UNL1        0.1399
     30 C         141.7941  143.0976  164.3863 C.3     1  UNL1        0.0577
     31 C         141.6203  144.0219  163.2178 C.3     1  UNL1        0.0758
     32 C         141.9029  142.1081  165.6820 C.3     1  UNL1        0.0695
     33 C         141.6328  141.3154  166.9265 C.ar    1  UNL1        0.0161
     34 C         142.4879  140.3750  167.7230 C.ar    1  UNL1        0.0102
     35 C         141.9338  139.7145  168.9505 C.ar    1  UNL1        0.0576
     36 CL        142.7889  138.7741  169.7469 Cl      1  UNL1       -0.0823
     37 C         140.5246  139.9943  169.3815 C.ar    1  UNL1        0.0145
     38 C         139.6694  140.9347  168.5850 C.ar    1  UNL1        0.0374
     39 C         140.2235  141.5953  167.3575 C.ar    1  UNL1        0.1343
     40 O         139.6227  142.5608  166.3794 O.3     1  UNL1       -0.4825
@<TRIPOS>BOND
     1    16    17    1
     2    17    18    2
     3    17    19   am
     4    19    15    1
     5    15    14    1
     6    14    10    1
     7    10    11   am
     8    11    12    2
     9    11     2    1
    10     2     3   ar
    11     3     4   ar
    12     4     5   ar
    13     5     6    1
    14     5     7   ar
    15     7     8   ar
    16     8     1    1
    17     1    21    1
    18    21    22    1
    19    22    23    1
    20    22    25    1
    21    25    26    1
    22    26    27    1
    23    27    28    1
    24    28    29    1
    25    29    30    1
    26    30    31    1
    27    29    32    1
    28    32    33    1
    29    33    34   ar
    30    34    35   ar
    31    35    36    1
    32    35    37   ar
    33    37    38   ar
    34    38    39   ar
    35    39    40    1
    36     8     2   ar
    37    31    26    1
    38    39    33   ar
    39    40    29    1
    40    19    20    1
    41    10    13    1
    42     6     9    1
    43    23    24    1
@<TRIPOS>MOLECULE
*****
 40 43 0 0 0
SMALL
GASTEIGER

@<TRIPOS>ATOM
      1 O         138.7373  139.7399  161.0260 O.3     1  UNL1       -0.4725
      2 C         138.7408  141.2247  163.1579 C.ar    1  UNL1        0.0874
      3 C         138.6882  141.3533  164.6515 C.ar    1  UNL1        0.0107
      4 C         138.5792  140.1257  165.5066 C.ar    1  UNL1        0.0370
      5 C         138.5230  138.7695  164.8682 C.ar    1  UNL1        0.1367
      6 O         138.4141  137.5420  165.7232 O.3     1  UNL1       -0.5054
      7 C         138.5757  138.6409  163.3746 C.ar    1  UNL1        0.0736
      8 C         138.6846  139.8685  162.5195 C.ar    1  UNL1        0.1460
      9 H         138.3812  137.6223  166.6562 H       1  UNL1        0.2922
     10 N         140.1340  142.7590  161.5911 N.am    1  UNL1       -0.2991
     11 C         138.8497  142.4522  162.3029 C.2     1  UNL1        0.2488
     12 O         137.6744  143.3730  162.1595 O.2     1  UNL1       -0.2700
     13 H         140.9055  142.1546  161.6853 H       1  UNL1        0.1498
     14 C         140.2429  143.9865  160.7361 C.3     1  UNL1        0.1109
     15 C         141.5293  144.7568  160.6900 C.3     1  UNL1        0.1107
     16 C         143.9981  144.2569  163.7567 C.3     1  UNL1        0.0946
     17 C         142.8228  144.7106  162.9427 C.2     1  UNL1        0.2230
     18 O         141.7654  145.5719  163.5675 O.2     1  UNL1       -0.2751
     19 N         142.7047  144.3030  161.5040 N.am    1  UNL1       -0.3026
     20 H         143.3987  143.7377  161.0940 H       1  UNL1        0.1495
     21 C         139.4860  138.6024  160.3971 C.3     1  UNL1        0.2358
     22 C         140.9643  138.7131  160.1679 C.3     1  UNL1        0.1700
     23 O         141.4848  139.4753  158.9854 O.3     1  UNL1       -0.3793
     24 H         140.7395  139.8299  158.4758 H       1  UNL1        0.2106
     25 C         141.9220  138.0617  161.1210 C.3     1  UNL1        0.1056
     26 N         142.0654  138.5894  162.5178 N.3     1  UNL1       -0.2703
     27 C         141.9762  137.6529  163.6861 C.3     1  UNL1        0.0758
     28 C         142.1197  138.1806  165.0829 C.3     1  UNL1        0.0577
     29 C         142.3524  139.6447  165.3113 C.3     1  UNL1        0.1399
     30 C         142.4416  140.5812  164.1430 C.3     1  UNL1        0.0577
     31 C         142.2981  140.0535  162.7462 C.3     1  UNL1        0.0758
     32 C         142.5871  141.0762  165.6933 C.3     1  UNL1        0.0695
     33 C         142.6661  141.1498  167.1894 C.ar    1  UNL1        0.0161
     34 C         142.8833  142.2997  168.1277 C.ar    1  UNL1        0.0102
     35 C         142.9146  142.0637  169.6087 C.ar    1  UNL1        0.0576
     36 CL        143.1318  143.2136  170.5470 Cl      1  UNL1       -0.0823
     37 C         142.7288  140.6777  170.1514 C.ar    1  UNL1        0.0145
     38 C         142.5116  139.5277  169.2131 C.ar    1  UNL1        0.0374
     39 C         142.4802  139.7637  167.7321 C.ar    1  UNL1        0.1343
     40 O         142.2864  138.8336  166.5714 O.3     1  UNL1       -0.4825
@<TRIPOS>BOND
     1    16    17    1
     2    17    18    2
     3    17    19   am
     4    19    15    1
     5    15    14    1
     6    14    10    1
     7    10    11   am
     8    11    12    2
     9    11     2    1
    10     2     3   ar
    11     3     4   ar
    12     4     5   ar
    13     5     6    1
    14     5     7   ar
    15     7     8   ar
    16     8     1    1
    17     1    21    1
    18    21    22    1
    19    22    23    1
    20    22    25    1
    21    25    26    1
    22    26    27    1
    23    27    28    1
    24    28    29    1
    25    29    30    1
    26    30    31    1
    27    29    32    1
    28    32    33    1
    29    33    34   ar
    30    34    35   ar
    31    35    36    1
    32    35    37   ar
    33    37    38   ar
    34    38    39   ar
    35    39    40    1
    36     8     2   ar
    37    31    26    1
    38    39    33   ar
    39    40    29    1
    40    19    20    1
    41    10    13    1
    42     6     9    1
    43    23    24    1
@<TRIPOS>MOLECULE
*****
 40 43 0 0 0
SMALL
GASTEIGER

@<TRIPOS>ATOM
      1 O         140.4426  139.6416  161.0026 O.3     1  UNL1       -0.4725
      2 C         139.0305  140.7904  162.8562 C.ar    1  UNL1        0.0874
      3 C         138.3529  140.7377  164.1934 C.ar    1  UNL1        0.0107
      4 C         138.4098  139.4835  165.0141 C.ar    1  UNL1        0.0370
      5 C         139.1443  138.2819  164.4977 C.ar    1  UNL1        0.1367
      6 O         139.2012  137.0277  165.3184 O.3     1  UNL1       -0.5054
      7 C         139.8219  138.3346  163.1605 C.ar    1  UNL1        0.0736
      8 C         139.7650  139.5889  162.3397 C.ar    1  UNL1        0.1460
      9 H         138.7779  136.9948  166.1537 H       1  UNL1        0.2922
     10 N         140.2428  142.6945  161.5698 N.am    1  UNL1       -0.2991
     11 C         138.9736  142.0447  162.0355 C.2     1  UNL1        0.2488
     12 O         137.6475  142.6491  161.6805 O.2     1  UNL1       -0.2700
     13 H         141.1131  142.2978  161.8028 H       1  UNL1        0.1498
     14 C         140.1858  143.9487  160.7491 C.3     1  UNL1        0.1109
     15 C         139.8779  145.2616  161.4060 C.3     1  UNL1        0.1107
     16 C         138.6200  144.9827  165.1597 C.3     1  UNL1        0.0946
     17 C         139.5172  144.9374  163.9584 C.2     1  UNL1        0.2230
     18 O         140.9509  144.5224  164.1083 O.2     1  UNL1       -0.2751
     19 N         138.9807  145.3070  162.6073 N.am    1  UNL1       -0.3026
     20 H         138.0398  145.5793  162.5089 H       1  UNL1        0.1495
     21 C         141.6262  138.7625  160.7265 C.3     1  UNL1        0.2358
     22 C         142.9990  139.3602  160.6338 C.3     1  UNL1        0.1700
     23 O         143.4926  139.9059  159.3266 O.3     1  UNL1       -0.3793
     24 H         142.8064  139.7948  158.6501 H       1  UNL1        0.2106
     25 C         143.8779  139.4122  161.8481 C.3     1  UNL1        0.1056
     26 N         143.2886  139.7441  163.1870 N.3     1  UNL1       -0.2703
     27 C         143.1909  138.6867  164.2464 C.3     1  UNL1        0.0758
     28 C         142.6016  139.0187  165.5852 C.3     1  UNL1        0.0577
     29 C         142.1098  140.4080  165.8646 C.3     1  UNL1        0.1399
     30 C         142.2075  141.4653  164.8051 C.3     1  UNL1        0.0577
     31 C         142.7968  141.1334  163.4663 C.3     1  UNL1        0.0758
     32 C         141.5793  141.7459  166.2871 C.3     1  UNL1        0.0695
     33 C         141.0891  141.6251  167.6997 C.ar    1  UNL1        0.0161
     34 C         140.4649  142.6188  168.6340 C.ar    1  UNL1        0.0102
     35 C         140.0683  142.2000  170.0186 C.ar    1  UNL1        0.0576
     36 CL        139.4441  143.1937  170.9529 Cl      1  UNL1       -0.0823
     37 C         140.2958  140.7874  170.4690 C.ar    1  UNL1        0.0145
     38 C         140.9200  139.7936  169.5347 C.ar    1  UNL1        0.0374
     39 C         141.3166  140.2124  168.1501 C.ar    1  UNL1        0.1343
     40 O         141.9475  139.4603  167.0159 O.3     1  UNL1       -0.4825
@<TRIPOS>BOND
     1    16    17    1
     2    17    18    2
     3    17    19   am
     4    19    15    1
     5    15    14    1
     6    14    10    1
     7    10    11   am
     8    11    12    2
     9    11     2    1
    10     2     3   ar
    11     3     4   ar
    12     4     5   ar
    13     5     6    1
    14     5     7   ar
    15     7     8   ar
    16     8     1    1
    17     1    21    1
    18    21    22    1
    19    22    23    1
    20    22    25    1
    21    25    26    1
    22    26    27    1
    23    27    28    1
    24    28    29    1
    25    29    30    1
    26    30    31    1
    27    29    32    1
    28    32    33    1
    29    33    34   ar
    30    34    35   ar
    31    35    36    1
    32    35    37   ar
    33    37    38   ar
    34    38    39   ar
    35    39    40    1
    36     8     2   ar
    37    31    26    1
    38    39    33   ar
    39    40    29    1
    40    19    20    1
    41    10    13    1
    42     6     9    1
    43    23    24    1
@<TRIPOS>MOLECULE
*****
 40 43 0 0 0
SMALL
GASTEIGER

@<TRIPOS>ATOM
      1 O         142.4013  140.6667  160.3213 O.3     1  UNL1       -0.4725
      2 C         142.1751  142.2690  162.3540 C.ar    1  UNL1        0.0874
      3 C         142.7950  142.9954  163.5108 C.ar    1  UNL1        0.0107
      4 C         144.2608  142.8460  163.7916 C.ar    1  UNL1        0.0370
      5 C         145.1068  141.9701  162.9158 C.ar    1  UNL1        0.1367
      6 O         146.5727  141.8207  163.1966 O.3     1  UNL1       -0.5054
      7 C         144.4870  141.2437  161.7590 C.ar    1  UNL1        0.0736
      8 C         143.0211  141.3931  161.4781 C.ar    1  UNL1        0.1460
      9 H         146.9599  142.2745  163.9192 H       1  UNL1        0.2922
     10 N         139.7988  141.2319  162.1879 N.am    1  UNL1       -0.2991
     11 C         140.7092  142.4184  162.0731 C.2     1  UNL1        0.2488
     12 O         140.1538  143.7544  161.6774 O.2     1  UNL1       -0.2700
     13 H         140.1633  140.3550  162.4476 H       1  UNL1        0.1498
     14 C         138.3329  141.3813  161.9070 C.3     1  UNL1        0.1109
     15 C         137.4059  141.8499  162.9892 C.3     1  UNL1        0.1107
     16 C         138.6696  144.8258  165.2907 C.3     1  UNL1        0.0946
     17 C         138.5111  143.4517  164.7104 C.2     1  UNL1        0.2230
     18 O         139.2996  142.3053  165.2709 O.2     1  UNL1       -0.2751
     19 N         137.5643  143.2240  163.5695 N.am    1  UNL1       -0.3026
     20 H         137.0468  143.9764  163.2016 H       1  UNL1        0.1495
     21 C         143.0034  139.3829  159.8324 C.3     1  UNL1        0.2358
     22 C         143.2862  138.2711  160.7990 C.3     1  UNL1        0.1700
     23 O         144.6822  137.7425  160.9465 O.3     1  UNL1       -0.3793
     24 H         145.2754  138.2250  160.3497 H       1  UNL1        0.2106
     25 C         142.1730  137.6881  161.6180 C.3     1  UNL1        0.1056
     26 N         141.8966  138.2186  162.9936 N.3     1  UNL1       -0.2703
     27 C         140.5048  138.1695  163.5508 C.3     1  UNL1        0.0758
     28 C         140.2286  138.6999  164.9264 C.3     1  UNL1        0.0577
     29 C         141.3441  139.2795  165.7448 C.3     1  UNL1        0.1399
     30 C         142.7358  139.3286  165.1876 C.3     1  UNL1        0.0577
     31 C         143.0121  138.7981  163.8120 C.3     1  UNL1        0.0758
     32 C         142.3528  139.8849  166.6754 C.3     1  UNL1        0.0695
     33 C         141.6426  140.2773  167.9371 C.ar    1  UNL1        0.0161
     34 C         142.1271  140.9181  169.2038 C.ar    1  UNL1        0.0102
     35 C         141.1640  141.1960  170.3197 C.ar    1  UNL1        0.0576
     36 CL        141.6485  141.8369  171.5864 Cl      1  UNL1       -0.0823
     37 C         139.7165  140.8331  170.1689 C.ar    1  UNL1        0.0145
     38 C         139.2319  140.1922  168.9022 C.ar    1  UNL1        0.0374
     39 C         140.1950  139.9143  167.7863 C.ar    1  UNL1        0.1343
     40 O         140.0105  139.2976  166.4314 O.3     1  UNL1       -0.4825
@<TRIPOS>BOND
     1    16    17    1
     2    17    18    2
     3    17    19   am
     4    19    15    1
     5    15    14    1
     6    14    10    1
     7    10    11   am
     8    11    12    2
     9    11     2    1
    10     2     3   ar
    11     3     4   ar
    12     4     5   ar
    13     5     6    1
    14     5     7   ar
    15     7     8   ar
    16     8     1    1
    17     1    21    1
    18    21    22    1
    19    22    23    1
    20    22    25    1
    21    25    26    1
    22    26    27    1
    23    27    28    1
    24    28    29    1
    25    29    30    1
    26    30    31    1
    27    29    32    1
    28    32    33    1
    29    33    34   ar
    30    34    35   ar
    31    35    36    1
    32    35    37   ar
    33    37    38   ar
    34    38    39   ar
    35    39    40    1
    36     8     2   ar
    37    31    26    1
    38    39    33   ar
    39    40    29    1
    40    19    20    1
    41    10    13    1
    42     6     9    1
    43    23    24    1
@<TRIPOS>MOLECULE
*****
 40 43 0 0 0
SMALL
GASTEIGER

@<TRIPOS>ATOM
      1 O         141.0306  140.4823  159.6244 O.3     1  UNL1       -0.4725
      2 C         141.8168  141.9250  161.6370 C.ar    1  UNL1        0.0874
      3 C         142.6726  142.0959  162.8570 C.ar    1  UNL1        0.0107
      4 C         143.5978  140.9954  163.2845 C.ar    1  UNL1        0.0370
      5 C         143.6672  139.7238  162.4919 C.ar    1  UNL1        0.1367
      6 O         144.5924  138.6232  162.9193 O.3     1  UNL1       -0.5054
      7 C         142.8115  139.5527  161.2719 C.ar    1  UNL1        0.0736
      8 C         141.8863  140.6533  160.8444 C.ar    1  UNL1        0.1460
      9 H         145.1270  138.7300  163.6814 H       1  UNL1        0.2922
     10 N         141.4140  144.4215  161.0412 N.am    1  UNL1       -0.2991
     11 C         140.8916  143.0255  161.2096 C.2     1  UNL1        0.2488
     12 O         139.4440  142.7301  160.9505 O.2     1  UNL1       -0.2700
     13 H         142.3641  144.6154  161.2113 H       1  UNL1        0.1498
     14 C         140.4888  145.5221  160.6138 C.3     1  UNL1        0.1109
     15 C         139.6636  146.2472  161.6352 C.3     1  UNL1        0.1107
     16 C         137.9797  144.0697  164.4941 C.3     1  UNL1        0.0946
     17 C         139.0143  144.8122  163.7015 C.2     1  UNL1        0.2230
     18 O         140.4342  144.8624  164.1825 O.2     1  UNL1       -0.2751
     19 N         138.6289  145.5046  162.4278 N.am    1  UNL1       -0.3026
     20 H         137.6970  145.4716  162.1121 H       1  UNL1        0.1495
     21 C         140.2212  139.2322  159.4453 C.3     1  UNL1        0.2358
     22 C         138.8644  139.1205  160.0751 C.3     1  UNL1        0.1700
     23 O         137.6813  139.7791  159.4296 O.3     1  UNL1       -0.3793
     24 H         137.9651  140.2316  158.6199 H       1  UNL1        0.2106
     25 C         138.6906  138.3502  161.3504 C.3     1  UNL1        0.1056
     26 N         139.2889  138.8659  162.6256 N.3     1  UNL1       -0.2703
     27 C         140.2480  138.0136  163.4025 C.3     1  UNL1        0.0758
     28 C         140.8462  138.5294  164.6777 C.3     1  UNL1        0.0577
     29 C         140.4853  139.8974  165.1759 C.3     1  UNL1        0.1399
     30 C         139.5262  140.7497  164.3990 C.3     1  UNL1        0.0577
     31 C         138.9280  140.2340  163.1238 C.3     1  UNL1        0.0758
     32 C         140.2204  141.2377  165.7953 C.3     1  UNL1        0.0695
     33 C         141.0250  141.3321  167.0579 C.ar    1  UNL1        0.0161
     34 C         141.1620  142.4196  168.0817 C.ar    1  UNL1        0.0102
     35 C         142.0612  142.2253  169.2665 C.ar    1  UNL1        0.0576
     36 CL        142.1982  143.3129  170.2904 Cl      1  UNL1       -0.0823
     37 C         142.8233  140.9434  169.4275 C.ar    1  UNL1        0.0145
     38 C         142.6862  139.8558  168.4036 C.ar    1  UNL1        0.0374
     39 C         141.7871  140.0501  167.2188 C.ar    1  UNL1        0.1343
     40 O         141.4536  139.1635  166.0557 O.3     1  UNL1       -0.4825
@<TRIPOS>BOND
     1    16    17    1
     2    17    18    2
     3    17    19   am
     4    19    15    1
     5    15    14    1
     6    14    10    1
     7    10    11   am
     8    11    12    2
     9    11     2    1
    10     2     3   ar
    11     3     4   ar
    12     4     5   ar
    13     5     6    1
    14     5     7   ar
    15     7     8   ar
    16     8     1    1
    17     1    21    1
    18    21    22    1
    19    22    23    1
    20    22    25    1
    21    25    26    1
    22    26    27    1
    23    27    28    1
    24    28    29    1
    25    29    30    1
    26    30    31    1
    27    29    32    1
    28    32    33    1
    29    33    34   ar
    30    34    35   ar
    31    35    36    1
    32    35    37   ar
    33    37    38   ar
    34    38    39   ar
    35    39    40    1
    36     8     2   ar
    37    31    26    1
    38    39    33   ar
    39    40    29    1
    40    19    20    1
    41    10    13    1
    42     6     9    1
    43    23    24    1
@<TRIPOS>MOLECULE
*****
 40 43 0 0 0
SMALL
GASTEIGER

@<TRIPOS>ATOM
      1 O         141.3446  142.0325  159.1695 O.3     1  UNL1       -0.4725
      2 C         142.8055  142.5108  161.2639 C.ar    1  UNL1        0.0874
      3 C         143.8070  142.0512  162.2817 C.ar    1  UNL1        0.0107
      4 C         144.3489  140.6538  162.2228 C.ar    1  UNL1        0.0370
      5 C         143.8894  139.7159  161.1461 C.ar    1  UNL1        0.1367
      6 O         144.4313  138.3185  161.0872 O.3     1  UNL1       -0.5054
      7 C         142.8880  140.1755  160.1283 C.ar    1  UNL1        0.0736
      8 C         142.3460  141.5730  160.1872 C.ar    1  UNL1        0.1460
      9 H         145.0569  138.0314  161.7230 H       1  UNL1        0.2922
     10 N         140.9952  144.2519  160.5996 N.am    1  UNL1       -0.2991
     11 C         142.2636  143.9083  161.3228 C.2     1  UNL1        0.2488
     12 O         142.9901  144.9620  162.1049 O.2     1  UNL1       -0.2700
     13 H         140.5183  143.5603  160.0863 H       1  UNL1        0.1498
     14 C         140.4533  145.6493  160.6586 C.3     1  UNL1        0.1109
     15 C         139.6715  146.1007  161.8565 C.3     1  UNL1        0.1107
     16 C         139.5087  143.9084  165.1606 C.3     1  UNL1        0.0946
     17 C         139.1783  144.4504  163.8016 C.2     1  UNL1        0.2230
     18 O         138.0241  143.8843  163.0286 O.2     1  UNL1       -0.2751
     19 N         140.0020  145.5586  163.2156 N.am    1  UNL1       -0.3026
     20 H         140.7595  145.9302  163.7229 H       1  UNL1        0.1495
     21 C         140.0257  141.3291  159.0443 C.3     1  UNL1        0.2358
     22 C         138.9840  141.4931  160.1112 C.3     1  UNL1        0.1700
     23 O         138.3351  142.8281  160.3270 O.3     1  UNL1       -0.3793
     24 H         138.7001  143.4704  159.6984 H       1  UNL1        0.2106
     25 C         138.5914  140.3220  160.9623 C.3     1  UNL1        0.1056
     26 N         139.0147  140.2643  162.4002 N.3     1  UNL1       -0.2703
     27 C         137.9958  140.4259  163.4891 C.3     1  UNL1        0.0758
     28 C         138.4192  140.3682  164.9269 C.3     1  UNL1        0.0577
     29 C         139.8615  140.1490  165.2758 C.3     1  UNL1        0.1399
     30 C         140.8804  139.9875  164.1869 C.3     1  UNL1        0.0577
     31 C         140.4570  140.0452  162.7491 C.3     1  UNL1        0.0758
     32 C         141.2600  139.9373  165.7753 C.3     1  UNL1        0.0695
     33 C         141.2236  139.9504  167.2749 C.ar    1  UNL1        0.0161
     34 C         142.3007  139.7906  168.3065 C.ar    1  UNL1        0.0102
     35 C         141.9569  139.8505  169.7653 C.ar    1  UNL1        0.0576
     36 CL        143.0340  139.6907  170.7969 Cl      1  UNL1       -0.0823
     37 C         140.5360  140.0703  170.1926 C.ar    1  UNL1        0.0145
     38 C         139.4587  140.2302  169.1610 C.ar    1  UNL1        0.0374
     39 C         139.8026  140.1702  167.7021 C.ar    1  UNL1        0.1343
     40 O         138.9608  140.2930  166.4667 O.3     1  UNL1       -0.4825
@<TRIPOS>BOND
     1    16    17    1
     2    17    18    2
     3    17    19   am
     4    19    15    1
     5    15    14    1
     6    14    10    1
     7    10    11   am
     8    11    12    2
     9    11     2    1
    10     2     3   ar
    11     3     4   ar
    12     4     5   ar
    13     5     6    1
    14     5     7   ar
    15     7     8   ar
    16     8     1    1
    17     1    21    1
    18    21    22    1
    19    22    23    1
    20    22    25    1
    21    25    26    1
    22    26    27    1
    23    27    28    1
    24    28    29    1
    25    29    30    1
    26    30    31    1
    27    29    32    1
    28    32    33    1
    29    33    34   ar
    30    34    35   ar
    31    35    36    1
    32    35    37   ar
    33    37    38   ar
    34    38    39   ar
    35    39    40    1
    36     8     2   ar
    37    31    26    1
    38    39    33   ar
    39    40    29    1
    40    19    20    1
    41    10    13    1
    42     6     9    1
    43    23    24    1
@<TRIPOS>MOLECULE
*****
 40 43 0 0 0
SMALL
GASTEIGER

@<TRIPOS>ATOM
      1 O         142.5296  142.2321  159.7865 O.3     1  UNL1       -0.4725
      2 C         142.3576  140.5905  161.7929 C.ar    1  UNL1        0.0874
      3 C         142.9556  139.9764  163.0239 C.ar    1  UNL1        0.0107
      4 C         144.3235  140.3900  163.4796 C.ar    1  UNL1        0.0370
      5 C         145.0935  141.4176  162.7042 C.ar    1  UNL1        0.1367
      6 O         146.4615  141.8311  163.1598 O.3     1  UNL1       -0.5054
      7 C         144.4956  142.0316  161.4732 C.ar    1  UNL1        0.0736
      8 C         143.1276  141.6180  161.0175 C.ar    1  UNL1        0.1460
      9 H         146.8350  141.4475  163.9288 H       1  UNL1        0.2922
     10 N         140.7258  138.7508  160.9545 N.am    1  UNL1       -0.2991
     11 C         140.9896  140.1769  161.3372 C.2     1  UNL1        0.2488
     12 O         139.8854  141.1895  161.2644 O.2     1  UNL1       -0.2700
     13 H         141.4506  138.0862  161.0023 H       1  UNL1        0.1498
     14 C         139.3579  138.3372  160.4988 C.3     1  UNL1        0.1109
     15 C         138.2888  138.0410  161.5084 C.3     1  UNL1        0.1107
     16 C         139.0094  137.9381  165.4097 C.3     1  UNL1        0.0946
     17 C         138.6360  138.4507  164.0504 C.2     1  UNL1        0.2230
     18 O         138.2363  139.8857  163.8737 O.2     1  UNL1       -0.2751
     19 N         138.6622  137.5283  162.8678 N.am    1  UNL1       -0.3026
     20 H         138.9245  136.5865  162.9838 H       1  UNL1        0.1495
     21 C         142.2200  143.6994  159.7550 C.3     1  UNL1        0.2358
     22 C         140.9338  144.2072  160.3365 C.3     1  UNL1        0.1700
     23 O         139.6431  143.9939  159.6026 O.3     1  UNL1       -0.3793
     24 H         139.8160  143.5154  158.7767 H       1  UNL1        0.2106
     25 C         140.9384  144.9282  161.6518 C.3     1  UNL1        0.1056
     26 N         141.0280  144.1521  162.9323 N.3     1  UNL1       -0.2703
     27 C         139.7959  143.5313  163.5208 C.3     1  UNL1        0.0758
     28 C         139.8855  142.7552  164.8013 C.3     1  UNL1        0.0577
     29 C         141.2073  142.5999  165.4932 C.3     1  UNL1        0.1399
     30 C         142.4395  143.2206  164.9046 C.3     1  UNL1        0.0577
     31 C         142.3498  143.9967  163.6242 C.3     1  UNL1        0.0758
     32 C         142.4529  142.3611  166.2941 C.3     1  UNL1        0.0695
     33 C         142.0825  141.5399  167.4935 C.ar    1  UNL1        0.0161
     34 C         142.8973  141.0021  168.6323 C.ar    1  UNL1        0.0102
     35 C         142.2377  140.1956  169.7114 C.ar    1  UNL1        0.0576
     36 CL        143.0525  139.6578  170.8501 Cl      1  UNL1       -0.0823
     37 C         140.7632  139.9269  169.6517 C.ar    1  UNL1        0.0145
     38 C         139.9483  140.4646  168.5129 C.ar    1  UNL1        0.0374
     39 C         140.6079  141.2711  167.4338 C.ar    1  UNL1        0.1343
     40 O         140.0670  141.9262  166.1976 O.3     1  UNL1       -0.4825
@<TRIPOS>BOND
     1    16    17    1
     2    17    18    2
     3    17    19   am
     4    19    15    1
     5    15    14    1
     6    14    10    1
     7    10    11   am
     8    11    12    2
     9    11     2    1
    10     2     3   ar
    11     3     4   ar
    12     4     5   ar
    13     5     6    1
    14     5     7   ar
    15     7     8   ar
    16     8     1    1
    17     1    21    1
    18    21    22    1
    19    22    23    1
    20    22    25    1
    21    25    26    1
    22    26    27    1
    23    27    28    1
    24    28    29    1
    25    29    30    1
    26    30    31    1
    27    29    32    1
    28    32    33    1
    29    33    34   ar
    30    34    35   ar
    31    35    36    1
    32    35    37   ar
    33    37    38   ar
    34    38    39   ar
    35    39    40    1
    36     8     2   ar
    37    31    26    1
    38    39    33   ar
    39    40    29    1
    40    19    20    1
    41    10    13    1
    42     6     9    1
    43    23    24    1
@<TRIPOS>MOLECULE
*****
 40 43 0 0 0
SMALL
GASTEIGER

@<TRIPOS>ATOM
      1 O         139.1731  143.7736  160.4706 O.3     1  UNL1       -0.4725
      2 C         138.0939  142.0390  162.0756 C.ar    1  UNL1        0.0874
      3 C         137.5719  141.6750  163.4340 C.ar    1  UNL1        0.0107
      4 C         137.6072  142.6815  164.5455 C.ar    1  UNL1        0.0370
      5 C         138.1645  144.0521  164.2987 C.ar    1  UNL1        0.1367
      6 O         138.1998  145.0587  165.4103 O.3     1  UNL1       -0.5054
      7 C         138.6864  144.4162  162.9405 C.ar    1  UNL1        0.0736
      8 C         138.6512  143.4096  161.8289 C.ar    1  UNL1        0.1460
      9 H         137.8737  144.8313  166.2588 H       1  UNL1        0.2922
     10 N         139.1618  140.9978  159.9483 N.am    1  UNL1       -0.2991
     11 C         138.0586  141.0324  160.9641 C.2     1  UNL1        0.2488
     12 O         136.9202  140.0604  160.8684 O.2     1  UNL1       -0.2700
     13 H         139.9090  141.6358  160.0111 H       1  UNL1        0.1498
     14 C         139.1265  139.9912  158.8368 C.3     1  UNL1        0.1109
     15 C         139.6904  138.6178  159.0505 C.3     1  UNL1        0.1107
     16 C         141.6863  137.8038  162.3828 C.3     1  UNL1        0.0946
     17 C         140.5499  138.0073  161.4251 C.2     1  UNL1        0.2230
     18 O         139.1364  137.8036  161.8842 O.2     1  UNL1       -0.2751
     19 N         140.8269  138.4144  160.0082 N.am    1  UNL1       -0.3026
     20 H         141.7546  138.5481  159.7068 H       1  UNL1        0.1495
     21 C         140.5159  144.4279  160.3338 C.3     1  UNL1        0.2358
     22 C         141.6963  143.6276  159.8687 C.3     1  UNL1        0.1700
     23 O         141.9378  143.4307  158.4015 O.3     1  UNL1       -0.3793
     24 H         141.2439  143.8823  157.8961 H       1  UNL1        0.2106
     25 C         142.6352  143.0243  160.8710 C.3     1  UNL1        0.1056
     26 N         142.1704  142.7666  162.2738 N.3     1  UNL1       -0.2703
     27 C         142.2930  143.8407  163.3136 C.3     1  UNL1        0.0758
     28 C         141.8282  143.5830  164.7163 C.3     1  UNL1        0.0577
     29 C         141.2409  142.2513  165.0791 C.3     1  UNL1        0.1399
     30 C         141.1183  141.1773  164.0393 C.3     1  UNL1        0.0577
     31 C         141.5831  141.4349  162.6366 C.3     1  UNL1        0.0758
     32 C         140.6362  140.9762  165.5874 C.3     1  UNL1        0.0695
     33 C         140.3208  141.1603  167.0423 C.ar    1  UNL1        0.0161
     34 C         139.7134  140.2428  168.0617 C.ar    1  UNL1        0.0102
     35 C         139.5158  140.7141  169.4719 C.ar    1  UNL1        0.0576
     36 CL        138.9084  139.7965  170.4912 Cl      1  UNL1       -0.0823
     37 C         139.9257  142.1030  169.8628 C.ar    1  UNL1        0.0145
     38 C         140.5331  143.0207  168.8435 C.ar    1  UNL1        0.0374
     39 C         140.7307  142.5494  167.4332 C.ar    1  UNL1        0.1343
     40 O         141.2993  143.2236  166.2200 O.3     1  UNL1       -0.4825
@<TRIPOS>BOND
     1    16    17    1
     2    17    18    2
     3    17    19   am
     4    19    15    1
     5    15    14    1
     6    14    10    1
     7    10    11   am
     8    11    12    2
     9    11     2    1
    10     2     3   ar
    11     3     4   ar
    12     4     5   ar
    13     5     6    1
    14     5     7   ar
    15     7     8   ar
    16     8     1    1
    17     1    21    1
    18    21    22    1
    19    22    23    1
    20    22    25    1
    21    25    26    1
    22    26    27    1
    23    27    28    1
    24    28    29    1
    25    29    30    1
    26    30    31    1
    27    29    32    1
    28    32    33    1
    29    33    34   ar
    30    34    35   ar
    31    35    36    1
    32    35    37   ar
    33    37    38   ar
    34    38    39   ar
    35    39    40    1
    36     8     2   ar
    37    31    26    1
    38    39    33   ar
    39    40    29    1
    40    19    20    1
    41    10    13    1
    42     6     9    1
    43    23    24    1
@<TRIPOS>MOLECULE
*****
 40 43 0 0 0
SMALL
GASTEIGER

@<TRIPOS>ATOM
      1 O         139.8169  144.7301  160.3407 O.3     1  UNL1       -0.4725
      2 C         138.5173  142.8852  161.6280 C.ar    1  UNL1        0.0874
      3 C         137.8965  142.3776  162.8958 C.ar    1  UNL1        0.0107
      4 C         137.9547  143.2076  164.1439 C.ar    1  UNL1        0.0370
      5 C         138.6336  144.5450  164.1243 C.ar    1  UNL1        0.1367
      6 O         138.6917  145.3749  165.3724 O.3     1  UNL1       -0.5054
      7 C         139.2543  145.0525  162.8566 C.ar    1  UNL1        0.0736
      8 C         139.1962  144.2226  161.6084 C.ar    1  UNL1        0.1460
      9 H         138.3040  145.0579  166.1643 H       1  UNL1        0.2922
     10 N         138.3511  142.7217  159.0404 N.am    1  UNL1       -0.2991
     11 C         138.4592  142.0552  160.3799 C.2     1  UNL1        0.2488
     12 O         138.5091  140.5589  160.4713 O.2     1  UNL1       -0.2700
     13 H         138.3183  143.7038  158.9805 H       1  UNL1        0.1498
     14 C         138.2930  141.8918  157.7923 C.3     1  UNL1        0.1109
     15 C         137.0618  141.9108  156.9356 C.3     1  UNL1        0.1107
     16 C         134.0691  139.5012  155.9418 C.3     1  UNL1        0.0946
     17 C         134.9888  140.6860  155.9595 C.2     1  UNL1        0.2230
     18 O         134.7555  141.8308  155.0187 O.2     1  UNL1       -0.2751
     19 N         136.1420  140.7260  156.9180 N.am    1  UNL1       -0.3026
     20 H         136.2952  139.9746  157.5354 H       1  UNL1        0.1495
     21 C         141.2954  144.5987  160.1247 C.3     1  UNL1        0.2358
     22 C         141.8997  143.2489  159.8735 C.3     1  UNL1        0.1700
     23 O         141.6183  142.5288  158.5881 O.3     1  UNL1       -0.3793
     24 H         141.0333  143.0702  158.0355 H       1  UNL1        0.2106
     25 C         142.7852  142.6194  160.9076 C.3     1  UNL1        0.1056
     26 N         142.2795  142.4167  162.3052 N.3     1  UNL1       -0.2703
     27 C         142.5048  143.4741  163.3450 C.3     1  UNL1        0.0758
     28 C         141.9991  143.2713  164.7425 C.3     1  UNL1        0.0577
     29 C         141.2681  142.0113  165.1003 C.3     1  UNL1        0.1399
     30 C         141.0429  140.9540  164.0604 C.3     1  UNL1        0.0577
     31 C         141.5486  141.1567  162.6629 C.3     1  UNL1        0.0758
     32 C         140.5242  140.8097  165.6031 C.3     1  UNL1        0.0695
     33 C         140.2138  141.0304  167.0541 C.ar    1  UNL1        0.0161
     34 C         139.4999  140.1859  168.0675 C.ar    1  UNL1        0.0102
     35 C         139.3380  140.6793  169.4747 C.ar    1  UNL1        0.0576
     36 CL        138.6240  139.8348  170.4881 Cl      1  UNL1       -0.0823
     37 C         139.8900  142.0172  169.8685 C.ar    1  UNL1        0.0145
     38 C         140.6041  142.8618  168.8551 C.ar    1  UNL1        0.0374
     39 C         140.7660  142.3684  167.4479 C.ar    1  UNL1        0.1343
     40 O         141.4175  142.9746  166.2404 O.3     1  UNL1       -0.4825
@<TRIPOS>BOND
     1    16    17    1
     2    17    18    2
     3    17    19   am
     4    19    15    1
     5    15    14    1
     6    14    10    1
     7    10    11   am
     8    11    12    2
     9    11     2    1
    10     2     3   ar
    11     3     4   ar
    12     4     5   ar
    13     5     6    1
    14     5     7   ar
    15     7     8   ar
    16     8     1    1
    17     1    21    1
    18    21    22    1
    19    22    23    1
    20    22    25    1
    21    25    26    1
    22    26    27    1
    23    27    28    1
    24    28    29    1
    25    29    30    1
    26    30    31    1
    27    29    32    1
    28    32    33    1
    29    33    34   ar
    30    34    35   ar
    31    35    36    1
    32    35    37   ar
    33    37    38   ar
    34    38    39   ar
    35    39    40    1
    36     8     2   ar
    37    31    26    1
    38    39    33   ar
    39    40    29    1
    40    19    20    1
    41    10    13    1
    42     6     9    1
    43    23    24    1
