@<TRIPOS>MOLECULE
*****
 31 35 0 0 0
SMALL
GASTEIGER

@<TRIPOS>ATOM
      1 C         140.4333  143.6036  161.1986 C.ar    1  UNL1        0.1353
      2 C         140.5080  142.8611  162.4998 C.ar    1  UNL1        0.0346
      3 C         139.8635  143.4329  163.7278 C.ar    1  UNL1        0.0058
      4 C         139.1443  144.7471  163.6544 C.ar    1  UNL1        0.0208
      5 C         139.0696  145.4897  162.3532 C.ar    1  UNL1        0.1003
      6 N         139.7141  144.9179  161.1253 N.ar    1  UNL1       -0.2290
      7 O         143.4139  143.7170  160.8782 O.2     1  UNL1       -0.2522
      8 C         142.5682  143.0885  159.8106 C.2     1  UNL1        0.3089
      9 N         141.0779  143.0318  159.9708 N.am    1  UNL1       -0.2535
     10 N         143.2129  142.5167  158.5828 N.am    1  UNL1       -0.2588
     11 C         144.7032  142.5734  158.4226 C.3     1  UNL1        0.1270
     12 C         145.3478  142.0016  157.1948 C.3     1  UNL1        0.1637
     13 O         144.5020  141.3731  156.1272 O.3     1  UNL1       -0.3501
     14 C         143.0117  141.3164  156.2874 C.3     1  UNL1        0.1637
     15 C         142.3672  141.8882  157.5152 C.3     1  UNL1        0.1270
     16 H         140.5228  142.6193  159.2702 H       1  UNL1        0.1578
     17 C         139.9381  142.6904  165.0289 C.ar    1  UNL1        0.0188
     18 C         140.5638  143.1929  166.2962 C.ar    1  UNL1        0.0758
     19 N         140.4126  142.1280  167.3417 N.ar    1  UNL1       -0.3265
     20 C         139.6935  140.9674  166.7207 C.ar    1  UNL1        0.0793
     21 C         139.2678  139.6390  167.2720 C.ar    1  UNL1        0.1160
     22 N         138.5489  138.6581  166.3940 N.ar    1  UNL1       -0.2408
     23 C         138.2557  139.0056  164.9646 C.ar    1  UNL1        0.0990
     24 C         138.6813  140.3341  164.4132 C.ar    1  UNL1        0.0222
     25 C         139.4002  141.3149  165.2913 C.ar    1  UNL1        0.0203
     26 C         140.8957  142.2095  168.7595 C.3     1  UNL1        0.0906
     27 C         139.9401  141.9762  169.8920 C.3     1  UNL1        0.0547
     28 C         140.4232  142.0577  171.3098 C.3     1  UNL1        0.1441
     29 O         141.8618  142.3724  171.5950 O.3     1  UNL1       -0.3536
     30 C         142.8173  142.6056  170.4625 C.3     1  UNL1        0.1441
     31 C         142.3342  142.5242  169.0448 C.3     1  UNL1        0.0547
@<TRIPOS>BOND
     1     7     8    2
     2     8     9   am
     3     9     1    1
     4     1     2   ar
     5     2     3   ar
     6     3    17    1
     7    17    18   ar
     8    18    19   ar
     9    19    26    1
    10    26    27    1
    11    27    28    1
    12    28    29    1
    13    29    30    1
    14    30    31    1
    15    19    20   ar
    16    20    21   ar
    17    21    22   ar
    18    22    23   ar
    19    23    24   ar
    20    24    25   ar
    21     3     4   ar
    22     4     5   ar
    23     5     6   ar
    24     8    10   am
    25    10    11    1
    26    11    12    1
    27    12    13    1
    28    13    14    1
    29    14    15    1
    30     6     1   ar
    31    15    10    1
    32    25    17   ar
    33    31    26    1
    34    25    20   ar
    35     9    16    1
@<TRIPOS>MOLECULE
*****
 31 35 0 0 0
SMALL
GASTEIGER

@<TRIPOS>ATOM
      1 C         142.6190  143.6882  161.4769 C.ar    1  UNL1        0.1353
      2 C         141.8324  143.1965  162.6557 C.ar    1  UNL1        0.0346
      3 C         142.5307  142.4983  163.7849 C.ar    1  UNL1        0.0058
      4 C         144.0155  142.2918  163.7352 C.ar    1  UNL1        0.0208
      5 C         144.8021  142.7835  162.5564 C.ar    1  UNL1        0.1003
      6 N         144.1039  143.4817  161.4273 N.ar    1  UNL1       -0.2290
      7 O         141.1177  142.0935  159.4269 O.2     1  UNL1       -0.2522
      8 C         141.1700  143.5889  159.3228 C.2     1  UNL1        0.3089
      9 N         141.9207  144.3863  160.3479 N.am    1  UNL1       -0.2535
     10 N         140.4716  144.2871  158.1936 N.am    1  UNL1       -0.2588
     11 C         139.7209  143.4897  157.1686 C.3     1  UNL1        0.1270
     12 C         139.0226  144.1878  156.0395 C.3     1  UNL1        0.1637
     13 O         139.0748  145.6833  155.9355 O.3     1  UNL1       -0.3501
     14 C         139.8255  146.4807  156.9605 C.3     1  UNL1        0.1637
     15 C         140.5238  145.7825  158.0896 C.3     1  UNL1        0.1270
     16 H         141.9550  145.3678  160.2796 H       1  UNL1        0.1578
     17 C         141.7441  142.0066  164.9637 C.ar    1  UNL1        0.0188
     18 C         141.9294  142.4367  166.3887 C.ar    1  UNL1        0.0758
     19 N         140.9339  141.6944  167.2301 N.ar    1  UNL1       -0.3265
     20 C         140.1334  140.8055  166.3251 C.ar    1  UNL1        0.0793
     21 C         139.0132  139.8454  166.5955 C.ar    1  UNL1        0.1160
     22 N         138.3937  139.0781  165.4652 N.ar    1  UNL1       -0.2408
     23 C         138.8944  139.2711  164.0645 C.ar    1  UNL1        0.0990
     24 C         140.0146  140.2312  163.7941 C.ar    1  UNL1        0.0222
     25 C         140.6341  140.9984  164.9244 C.ar    1  UNL1        0.0203
     26 C         140.7681  141.8191  168.7157 C.3     1  UNL1        0.0906
     27 C         140.2116  143.0814  169.3049 C.3     1  UNL1        0.0547
     28 C         140.0457  143.2060  170.7905 C.3     1  UNL1        0.1441
     29 O         140.4363  142.0685  171.6868 O.3     1  UNL1       -0.3536
     30 C         140.9927  140.8063  171.0976 C.3     1  UNL1        0.1441
     31 C         141.1586  140.6816  169.6120 C.3     1  UNL1        0.0547
@<TRIPOS>BOND
     1     7     8    2
     2     8     9   am
     3     9     1    1
     4     1     2   ar
     5     2     3   ar
     6     3    17    1
     7    17    18   ar
     8    18    19   ar
     9    19    26    1
    10    26    27    1
    11    27    28    1
    12    28    29    1
    13    29    30    1
    14    30    31    1
    15    19    20   ar
    16    20    21   ar
    17    21    22   ar
    18    22    23   ar
    19    23    24   ar
    20    24    25   ar
    21     3     4   ar
    22     4     5   ar
    23     5     6   ar
    24     8    10   am
    25    10    11    1
    26    11    12    1
    27    12    13    1
    28    13    14    1
    29    14    15    1
    30     6     1   ar
    31    15    10    1
    32    25    17   ar
    33    31    26    1
    34    25    20   ar
    35     9    16    1
@<TRIPOS>MOLECULE
*****
 31 35 0 0 0
SMALL
GASTEIGER

@<TRIPOS>ATOM
      1 C         143.6467  141.8778  161.6598 C.ar    1  UNL1        0.1353
      2 C         142.6872  141.6583  162.7917 C.ar    1  UNL1        0.0346
      3 C         143.2034  141.2979  164.1533 C.ar    1  UNL1        0.0058
      4 C         144.6790  141.1572  164.3829 C.ar    1  UNL1        0.0208
      5 C         145.6384  141.3768  163.2510 C.ar    1  UNL1        0.1003
      6 N         145.1223  141.7371  161.8894 N.ar    1  UNL1       -0.2290
      7 O         142.5173  144.6115  161.1590 O.2     1  UNL1       -0.2522
      8 C         142.5658  143.6050  160.0480 C.2     1  UNL1        0.3089
      9 N         143.1305  142.2381  160.2983 N.am    1  UNL1       -0.2535
     10 N         142.0495  143.9654  158.6864 N.am    1  UNL1       -0.2588
     11 C         141.4848  145.3323  158.4360 C.3     1  UNL1        0.1270
     12 C         140.9686  145.6926  157.0746 C.3     1  UNL1        0.1637
     13 O         141.0171  144.6861  155.9635 O.3     1  UNL1       -0.3501
     14 C         141.5818  143.3192  156.2138 C.3     1  UNL1        0.1637
     15 C         142.0980  142.9589  157.5753 C.3     1  UNL1        0.1270
     16 H         143.1623  141.5775  159.5691 H       1  UNL1        0.1578
     17 C         142.2439  141.0784  165.2852 C.ar    1  UNL1        0.0188
     18 C         142.3578  141.6603  166.6630 C.ar    1  UNL1        0.0758
     19 N         141.1863  141.1799  167.4673 N.ar    1  UNL1       -0.3265
     20 C         140.3485  140.3011  166.5866 C.ar    1  UNL1        0.0793
     21 C         139.0748  139.5498  166.8385 C.ar    1  UNL1        0.1160
     22 N         138.4548  138.7359  165.7417 N.ar    1  UNL1       -0.2408
     23 C         139.1085  138.6731  164.3930 C.ar    1  UNL1        0.0990
     24 C         140.3821  139.4243  164.1412 C.ar    1  UNL1        0.0222
     25 C         141.0021  140.2383  165.2380 C.ar    1  UNL1        0.0203
     26 C         140.9025  141.5188  168.9007 C.3     1  UNL1        0.0906
     27 C         141.2660  140.5499  169.9867 C.3     1  UNL1        0.0547
     28 C         140.9821  140.8888  171.4201 C.3     1  UNL1        0.1441
     29 O         140.3349  142.1966  171.7675 O.3     1  UNL1       -0.3536
     30 C         139.9715  143.1655  170.6816 C.3     1  UNL1        0.1441
     31 C         140.2553  142.8266  169.2483 C.3     1  UNL1        0.0547
@<TRIPOS>BOND
     1     7     8    2
     2     8     9   am
     3     9     1    1
     4     1     2   ar
     5     2     3   ar
     6     3    17    1
     7    17    18   ar
     8    18    19   ar
     9    19    26    1
    10    26    27    1
    11    27    28    1
    12    28    29    1
    13    29    30    1
    14    30    31    1
    15    19    20   ar
    16    20    21   ar
    17    21    22   ar
    18    22    23   ar
    19    23    24   ar
    20    24    25   ar
    21     3     4   ar
    22     4     5   ar
    23     5     6   ar
    24     8    10   am
    25    10    11    1
    26    11    12    1
    27    12    13    1
    28    13    14    1
    29    14    15    1
    30     6     1   ar
    31    15    10    1
    32    25    17   ar
    33    31    26    1
    34    25    20   ar
    35     9    16    1
@<TRIPOS>MOLECULE
*****
 31 35 0 0 0
SMALL
GASTEIGER

@<TRIPOS>ATOM
      1 C         142.7613  143.6182  160.7595 C.ar    1  UNL1        0.1353
      2 C         142.7111  142.8514  162.0476 C.ar    1  UNL1        0.0346
      3 C         141.7236  143.2337  163.1102 C.ar    1  UNL1        0.0058
      4 C         140.7864  144.3828  162.8844 C.ar    1  UNL1        0.0208
      5 C         140.8366  145.1497  161.5962 C.ar    1  UNL1        0.1003
      6 N         141.8240  144.7674  160.5338 N.ar    1  UNL1       -0.2290
      7 O         142.2102  141.2709  158.9746 O.2     1  UNL1       -0.2522
      8 C         143.4732  142.0621  158.8046 C.2     1  UNL1        0.3089
      9 N         143.7487  143.2359  159.6971 N.am    1  UNL1       -0.2535
     10 N         144.4606  141.6797  157.7421 N.am    1  UNL1       -0.2588
     11 C         144.1851  140.5060  156.8497 C.3     1  UNL1        0.1270
     12 C         145.1725  140.1236  155.7873 C.3     1  UNL1        0.1637
     13 O         146.4354  140.9149  155.6173 O.3     1  UNL1       -0.3501
     14 C         146.7110  142.0886  156.5097 C.3     1  UNL1        0.1637
     15 C         145.7235  142.4710  157.5721 C.3     1  UNL1        0.1270
     16 H         144.5776  143.7552  159.5855 H       1  UNL1        0.1578
     17 C         141.6735  142.4668  164.3983 C.ar    1  UNL1        0.0188
     18 C         140.8396  142.8103  165.5970 C.ar    1  UNL1        0.0758
     19 N         141.0992  141.7775  166.6534 N.ar    1  UNL1       -0.3265
     20 C         142.0934  140.7958  166.1077 C.ar    1  UNL1        0.0793
     21 C         142.7214  139.5691  166.6999 C.ar    1  UNL1        0.1160
     22 N         143.7043  138.7683  165.8982 N.ar    1  UNL1       -0.2408
     23 C         144.0592  139.1943  164.5045 C.ar    1  UNL1        0.0990
     24 C         143.4312  140.4211  163.9124 C.ar    1  UNL1        0.0222
     25 C         142.4483  141.2218  164.7140 C.ar    1  UNL1        0.0203
     26 C         140.4742  141.7341  168.0164 C.3     1  UNL1        0.0906
     27 C         139.7277  140.5111  168.4605 C.3     1  UNL1        0.0547
     28 C         139.1027  140.4677  169.8235 C.3     1  UNL1        0.1441
     29 O         139.2243  141.6471  170.7422 O.3     1  UNL1       -0.3536
     30 C         139.9708  142.8700  170.2981 C.3     1  UNL1        0.1441
     31 C         140.5958  142.9134  168.9352 C.3     1  UNL1        0.0547
@<TRIPOS>BOND
     1     7     8    2
     2     8     9   am
     3     9     1    1
     4     1     2   ar
     5     2     3   ar
     6     3    17    1
     7    17    18   ar
     8    18    19   ar
     9    19    26    1
    10    26    27    1
    11    27    28    1
    12    28    29    1
    13    29    30    1
    14    30    31    1
    15    19    20   ar
    16    20    21   ar
    17    21    22   ar
    18    22    23   ar
    19    23    24   ar
    20    24    25   ar
    21     3     4   ar
    22     4     5   ar
    23     5     6   ar
    24     8    10   am
    25    10    11    1
    26    11    12    1
    27    12    13    1
    28    13    14    1
    29    14    15    1
    30     6     1   ar
    31    15    10    1
    32    25    17   ar
    33    31    26    1
    34    25    20   ar
    35     9    16    1
@<TRIPOS>MOLECULE
*****
 31 35 0 0 0
SMALL
GASTEIGER

@<TRIPOS>ATOM
      1 C         141.9082  140.0874  161.0718 C.ar    1  UNL1        0.1353
      2 C         141.4400  140.4784  162.4422 C.ar    1  UNL1        0.0346
      3 C         141.8354  139.6561  163.6329 C.ar    1  UNL1        0.0058
      4 C         142.6989  138.4429  163.4530 C.ar    1  UNL1        0.0208
      5 C         143.1671  138.0519  162.0826 C.ar    1  UNL1        0.1003
      6 N         142.7717  138.8742  160.8920 N.ar    1  UNL1       -0.2290
      7 O         143.2326  142.7317  160.5687 O.2     1  UNL1       -0.2522
      8 C         142.1750  142.2319  159.6298 C.2     1  UNL1        0.3089
      9 N         141.5127  140.9097  159.8813 N.am    1  UNL1       -0.2535
     10 N         141.7796  143.0543  158.4392 N.am    1  UNL1       -0.2588
     11 C         142.4418  144.3765  158.1876 C.3     1  UNL1        0.1270
     12 C         142.0464  145.1988  156.9971 C.3     1  UNL1        0.1637
     13 O         140.9888  144.6990  156.0581 O.3     1  UNL1       -0.3501
     14 C         140.3266  143.3768  156.3097 C.3     1  UNL1        0.1637
     15 C         140.7220  142.5545  157.5002 C.3     1  UNL1        0.1270
     16 H         140.8186  140.5817  159.2650 H       1  UNL1        0.1578
     17 C         141.3672  140.0471  165.0033 C.ar    1  UNL1        0.0188
     18 C         142.0051  141.0718  165.8939 C.ar    1  UNL1        0.0758
     19 N         141.2111  141.1400  167.1647 N.ar    1  UNL1       -0.3265
     20 C         140.0825  140.1574  167.0595 C.ar    1  UNL1        0.0793
     21 C         138.9795  139.7905  168.0074 C.ar    1  UNL1        0.1160
     22 N         137.9730  138.7482  167.6196 N.ar    1  UNL1       -0.2408
     23 C         138.0696  138.0727  166.2837 C.ar    1  UNL1        0.0990
     24 C         139.1726  138.4396  165.3358 C.ar    1  UNL1        0.0222
     25 C         140.1791  139.4820  165.7236 C.ar    1  UNL1        0.0203
     26 C         141.4956  142.0338  168.3352 C.3     1  UNL1        0.0906
     27 C         142.8178  141.9501  169.0388 C.3     1  UNL1        0.0547
     28 C         143.1023  142.8440  170.2093 C.3     1  UNL1        0.1441
     29 O         142.0647  143.8214  170.6763 O.3     1  UNL1       -0.3536
     30 C         140.7426  143.9050  169.9727 C.3     1  UNL1        0.1441
     31 C         140.4581  143.0112  168.8022 C.3     1  UNL1        0.0547
@<TRIPOS>BOND
     1     7     8    2
     2     8     9   am
     3     9     1    1
     4     1     2   ar
     5     2     3   ar
     6     3    17    1
     7    17    18   ar
     8    18    19   ar
     9    19    26    1
    10    26    27    1
    11    27    28    1
    12    28    29    1
    13    29    30    1
    14    30    31    1
    15    19    20   ar
    16    20    21   ar
    17    21    22   ar
    18    22    23   ar
    19    23    24   ar
    20    24    25   ar
    21     3     4   ar
    22     4     5   ar
    23     5     6   ar
    24     8    10   am
    25    10    11    1
    26    11    12    1
    27    12    13    1
    28    13    14    1
    29    14    15    1
    30     6     1   ar
    31    15    10    1
    32    25    17   ar
    33    31    26    1
    34    25    20   ar
    35     9    16    1
@<TRIPOS>MOLECULE
*****
 31 35 0 0 0
SMALL
GASTEIGER

@<TRIPOS>ATOM
      1 C         143.1310  139.6888  159.4511 C.ar    1  UNL1        0.1353
      2 C         142.2004  139.8893  160.6104 C.ar    1  UNL1        0.0346
      3 C         142.2033  141.1896  161.3583 C.ar    1  UNL1        0.0058
      4 C         143.1367  142.2893  160.9468 C.ar    1  UNL1        0.0208
      5 C         144.0672  142.0888  159.7876 C.ar    1  UNL1        0.1003
      6 N         144.0644  140.7885  159.0397 N.ar    1  UNL1       -0.2290
      7 O         141.0817  139.1901  157.3177 O.2     1  UNL1       -0.2522
      8 C         142.1034  138.1392  157.6366 C.2     1  UNL1        0.3089
      9 N         143.1280  138.3885  158.7033 N.am    1  UNL1       -0.2535
     10 N         142.1004  136.8388  156.8887 N.am    1  UNL1       -0.2588
     11 C         141.0758  136.5895  155.8220 C.3     1  UNL1        0.1270
     12 C         141.0728  135.2892  155.0742 C.3     1  UNL1        0.1637
     13 O         142.0945  134.2383  155.3931 O.3     1  UNL1       -0.3501
     14 C         143.1192  134.4876  156.4598 C.3     1  UNL1        0.1637
     15 C         143.1221  135.7879  157.2076 C.3     1  UNL1        0.1270
     16 H         143.7986  137.6987  158.9127 H       1  UNL1        0.1578
     17 C         141.2727  141.3901  162.5175 C.ar    1  UNL1        0.0188
     18 C         140.9951  140.3974  163.6072 C.ar    1  UNL1        0.0758
     19 N         140.0072  141.0124  164.5537 N.ar    1  UNL1       -0.3265
     20 C         139.6742  142.3851  164.0490 C.ar    1  UNL1        0.0793
     21 C         138.7598  143.4526  164.5727 C.ar    1  UNL1        0.1160
     22 N         138.6276  144.7536  163.8379 N.ar    1  UNL1       -0.2408
     23 C         139.4097  144.9870  162.5795 C.ar    1  UNL1        0.0990
     24 C         140.3241  143.9195  162.0557 C.ar    1  UNL1        0.0222
     25 C         140.4563  142.6185  162.7905 C.ar    1  UNL1        0.0203
     26 C         139.4501  140.3678  165.7883 C.3     1  UNL1        0.0906
     27 C         138.3321  139.3739  165.6761 C.3     1  UNL1        0.0547
     28 C         137.7750  138.7293  166.9107 C.3     1  UNL1        0.1441
     29 O         138.3357  139.0785  168.2574 O.3     1  UNL1       -0.3536
     30 C         139.4537  140.0723  168.3695 C.3     1  UNL1        0.1441
     31 C         140.0108  140.7169  167.1349 C.3     1  UNL1        0.0547
@<TRIPOS>BOND
     1     7     8    2
     2     8     9   am
     3     9     1    1
     4     1     2   ar
     5     2     3   ar
     6     3    17    1
     7    17    18   ar
     8    18    19   ar
     9    19    26    1
    10    26    27    1
    11    27    28    1
    12    28    29    1
    13    29    30    1
    14    30    31    1
    15    19    20   ar
    16    20    21   ar
    17    21    22   ar
    18    22    23   ar
    19    23    24   ar
    20    24    25   ar
    21     3     4   ar
    22     4     5   ar
    23     5     6   ar
    24     8    10   am
    25    10    11    1
    26    11    12    1
    27    12    13    1
    28    13    14    1
    29    14    15    1
    30     6     1   ar
    31    15    10    1
    32    25    17   ar
    33    31    26    1
    34    25    20   ar
    35     9    16    1
@<TRIPOS>MOLECULE
*****
 31 35 0 0 0
SMALL
GASTEIGER

@<TRIPOS>ATOM
      1 C         139.3146  143.7343  160.8406 C.ar    1  UNL1        0.1353
      2 C         139.6732  142.9572  162.0724 C.ar    1  UNL1        0.0346
      3 C         140.3238  143.6497  163.2332 C.ar    1  UNL1        0.0058
      4 C         140.6157  145.1192  163.1620 C.ar    1  UNL1        0.0208
      5 C         140.2571  145.8963  161.9301 C.ar    1  UNL1        0.1003
      6 N         139.6066  145.2039  160.7694 N.ar    1  UNL1       -0.2290
      7 O         140.9699  142.8583  158.4971 O.2     1  UNL1       -0.2522
      8 C         139.4917  142.6038  158.5081 C.2     1  UNL1        0.3089
      9 N         138.6640  143.0418  159.6799 N.am    1  UNL1       -0.2535
     10 N         138.8412  141.9113  157.3474 N.am    1  UNL1       -0.2588
     11 C         139.6689  141.4732  156.1756 C.3     1  UNL1        0.1270
     12 C         139.0183  140.7807  155.0150 C.3     1  UNL1        0.1637
     13 O         137.5401  140.5263  155.0260 O.3     1  UNL1       -0.3501
     14 C         136.7124  140.9643  156.1977 C.3     1  UNL1        0.1637
     15 C         137.3630  141.6568  157.3584 C.3     1  UNL1        0.1270
     16 H         137.6938  142.8748  159.6872 H       1  UNL1        0.1578
     17 C         140.6824  142.8725  164.4650 C.ar    1  UNL1        0.0188
     18 C         140.0428  143.0144  165.8144 C.ar    1  UNL1        0.0758
     19 N         140.7087  142.0466  166.7470 N.ar    1  UNL1       -0.3265
     20 C         141.7598  141.3065  165.9741 C.ar    1  UNL1        0.0793
     21 C         142.7296  140.2338  166.3724 C.ar    1  UNL1        0.1160
     22 N         143.6832  139.6715  165.3602 N.ar    1  UNL1       -0.2408
     23 C         143.6669  140.1819  163.9498 C.ar    1  UNL1        0.0990
     24 C         142.6971  141.2546  163.5516 C.ar    1  UNL1        0.0222
     25 C         141.7435  141.8169  164.5637 C.ar    1  UNL1        0.0203
     26 C         140.3810  141.8528  168.1979 C.3     1  UNL1        0.0906
     27 C         140.4618  143.0122  169.1464 C.3     1  UNL1        0.0547
     28 C         140.1341  142.8184  170.5973 C.3     1  UNL1        0.1441
     29 O         139.7256  141.4654  171.0998 O.3     1  UNL1       -0.3536
     30 C         139.6448  140.3062  170.1513 C.3     1  UNL1        0.1441
     31 C         139.9725  140.4999  168.7004 C.3     1  UNL1        0.0547
@<TRIPOS>BOND
     1     7     8    2
     2     8     9   am
     3     9     1    1
     4     1     2   ar
     5     2     3   ar
     6     3    17    1
     7    17    18   ar
     8    18    19   ar
     9    19    26    1
    10    26    27    1
    11    27    28    1
    12    28    29    1
    13    29    30    1
    14    30    31    1
    15    19    20   ar
    16    20    21   ar
    17    21    22   ar
    18    22    23   ar
    19    23    24   ar
    20    24    25   ar
    21     3     4   ar
    22     4     5   ar
    23     5     6   ar
    24     8    10   am
    25    10    11    1
    26    11    12    1
    27    12    13    1
    28    13    14    1
    29    14    15    1
    30     6     1   ar
    31    15    10    1
    32    25    17   ar
    33    31    26    1
    34    25    20   ar
    35     9    16    1
@<TRIPOS>MOLECULE
*****
 31 35 0 0 0
SMALL
GASTEIGER

@<TRIPOS>ATOM
      1 C         139.5450  141.2680  160.7757 C.ar    1  UNL1        0.1353
      2 C         140.1610  141.2593  162.1433 C.ar    1  UNL1        0.0346
      3 C         139.4194  140.6496  163.2960 C.ar    1  UNL1        0.0058
      4 C         138.0620  140.0488  163.0809 C.ar    1  UNL1        0.0208
      5 C         137.4461  140.0576  161.7132 C.ar    1  UNL1        0.1003
      6 N         138.1876  140.6672  160.5606 N.ar    1  UNL1       -0.2290
      7 O         139.3949  144.2247  160.2911 O.2     1  UNL1       -0.2522
      8 C         140.2115  143.3561  159.3808 C.2     1  UNL1        0.3089
      9 N         140.2866  141.8777  159.6231 N.am    1  UNL1       -0.2535
     10 N         140.9531  143.9658  158.2282 N.am    1  UNL1       -0.2588
     11 C         140.8781  145.4442  157.9859 C.3     1  UNL1        0.1270
     12 C         141.6196  146.0538  156.8334 C.3     1  UNL1        0.1637
     13 O         142.4363  145.1852  155.9232 O.3     1  UNL1       -0.3501
     14 C         142.5113  143.7067  156.1655 C.3     1  UNL1        0.1637
     15 C         141.7697  143.0971  157.3180 C.3     1  UNL1        0.1270
     16 H         140.8226  141.3075  159.0257 H       1  UNL1        0.1578
     17 C         140.0354  140.6408  164.6637 C.ar    1  UNL1        0.0188
     18 C         139.5349  141.3934  165.8609 C.ar    1  UNL1        0.0758
     19 N         140.4502  141.0956  167.0113 N.ar    1  UNL1       -0.3265
     20 C         141.5163  140.1590  166.5252 C.ar    1  UNL1        0.0793
     21 C         142.6873  139.5258  167.2163 C.ar    1  UNL1        0.1160
     22 N         143.6020  138.6115  166.4564 N.ar    1  UNL1       -0.2408
     23 C         143.3456  138.3305  165.0055 C.ar    1  UNL1        0.0990
     24 C         142.1745  138.9637  164.3144 C.ar    1  UNL1        0.0222
     25 C         141.2599  139.8780  165.0743 C.ar    1  UNL1        0.0203
     26 C         140.3220  141.6390  168.4036 C.3     1  UNL1        0.0906
     27 C         140.0418  140.7108  169.5482 C.3     1  UNL1        0.0547
     28 C         139.9136  141.2542  170.9404 C.3     1  UNL1        0.1441
     29 O         140.0654  142.7257  171.1881 O.3     1  UNL1       -0.3536
     30 C         140.3455  143.6539  170.0435 C.3     1  UNL1        0.1441
     31 C         140.4738  143.1105  168.6513 C.3     1  UNL1        0.0547
@<TRIPOS>BOND
     1     7     8    2
     2     8     9   am
     3     9     1    1
     4     1     2   ar
     5     2     3   ar
     6     3    17    1
     7    17    18   ar
     8    18    19   ar
     9    19    26    1
    10    26    27    1
    11    27    28    1
    12    28    29    1
    13    29    30    1
    14    30    31    1
    15    19    20   ar
    16    20    21   ar
    17    21    22   ar
    18    22    23   ar
    19    23    24   ar
    20    24    25   ar
    21     3     4   ar
    22     4     5   ar
    23     5     6   ar
    24     8    10   am
    25    10    11    1
    26    11    12    1
    27    12    13    1
    28    13    14    1
    29    14    15    1
    30     6     1   ar
    31    15    10    1
    32    25    17   ar
    33    31    26    1
    34    25    20   ar
    35     9    16    1
@<TRIPOS>MOLECULE
*****
 31 35 0 0 0
SMALL
GASTEIGER

@<TRIPOS>ATOM
      1 C         143.3161  141.6138  165.3924 C.ar    1  UNL1        0.1353
      2 C         142.5261  140.8066  164.4054 C.ar    1  UNL1        0.0346
      3 C         142.8756  140.8536  162.9473 C.ar    1  UNL1        0.0058
      4 C         144.0151  141.7078  162.4765 C.ar    1  UNL1        0.0208
      5 C         144.8051  142.5150  163.4635 C.ar    1  UNL1        0.1003
      6 N         144.4557  142.4680  164.9215 N.ar    1  UNL1       -0.2290
      7 O         140.8791  143.0458  166.3974 O.2     1  UNL1       -0.2522
      8 C         141.7480  142.2828  167.3528 C.2     1  UNL1        0.3089
      9 N         142.9666  141.5668  166.8503 N.am    1  UNL1       -0.2535
     10 N         141.3984  142.2358  168.8108 N.am    1  UNL1       -0.2588
     11 C         140.1798  142.9518  169.3133 C.3     1  UNL1        0.1270
     12 C         139.8302  142.9047  170.7712 C.3     1  UNL1        0.1637
     13 O         140.6992  142.1417  171.7266 O.3     1  UNL1       -0.3501
     14 C         141.9177  141.4257  171.2241 C.3     1  UNL1        0.1637
     15 C         142.2673  141.4728  169.7662 C.3     1  UNL1        0.1270
     16 H         143.5369  141.0660  167.4774 H       1  UNL1        0.1578
     17 C         142.0856  140.0464  161.9603 C.ar    1  UNL1        0.0188
     18 C         142.5505  139.6151  160.6009 C.ar    1  UNL1        0.0758
     19 N         141.4441  138.8309  159.9599 N.ar    1  UNL1       -0.3265
     20 C         140.2954  138.7775  160.9230 C.ar    1  UNL1        0.0793
     21 C         138.9397  138.1419  160.8340 C.ar    1  UNL1        0.1160
     22 N         137.9804  138.2575  161.9813 N.ar    1  UNL1       -0.2408
     23 C         138.3768  139.0087  163.2176 C.ar    1  UNL1        0.0990
     24 C         139.7325  139.6443  163.3067 C.ar    1  UNL1        0.0222
     25 C         140.6918  139.5287  162.1594 C.ar    1  UNL1        0.0203
     26 C         141.4801  138.2092  158.5953 C.3     1  UNL1        0.0906
     27 C         142.7150  137.4975  158.1276 C.3     1  UNL1        0.0547
     28 C         142.7510  136.8758  156.7630 C.3     1  UNL1        0.1441
     29 O         141.5522  136.9658  155.8660 O.3     1  UNL1       -0.3536
     30 C         140.3173  137.6775  156.3336 C.3     1  UNL1        0.1441
     31 C         140.2814  138.2992  157.6982 C.3     1  UNL1        0.0547
@<TRIPOS>BOND
     1     7     8    2
     2     8     9   am
     3     9     1    1
     4     1     2   ar
     5     2     3   ar
     6     3    17    1
     7    17    18   ar
     8    18    19   ar
     9    19    26    1
    10    26    27    1
    11    27    28    1
    12    28    29    1
    13    29    30    1
    14    30    31    1
    15    19    20   ar
    16    20    21   ar
    17    21    22   ar
    18    22    23   ar
    19    23    24   ar
    20    24    25   ar
    21     3     4   ar
    22     4     5   ar
    23     5     6   ar
    24     8    10   am
    25    10    11    1
    26    11    12    1
    27    12    13    1
    28    13    14    1
    29    14    15    1
    30     6     1   ar
    31    15    10    1
    32    25    17   ar
    33    31    26    1
    34    25    20   ar
    35     9    16    1
