@<TRIPOS>MOLECULE
*****
 41 44 0 0 0
SMALL
GASTEIGER

@<TRIPOS>ATOM
      1 C         142.3739  139.1027  165.5965 C.ar    1  UNL1        0.0620
      2 C         142.3645  139.7119  166.9671 C.ar    1  UNL1        0.0294
      3 C         141.0867  140.2494  167.5401 C.ar    1  UNL1        0.0519
      4 C         139.8184  140.1778  166.7425 C.ar    1  UNL1        0.0486
      5 C         139.8278  139.5686  165.3719 C.ar    1  UNL1        0.1295
      6 N         141.1055  139.0310  164.7988 N.ar    1  UNL1       -0.2351
      7 N         141.0773  140.8586  168.9109 N.pl3   1  UNL1       -0.3027
      8 C         142.0025  140.3368  169.9699 C.3     1  UNL1        0.1231
      9 C         141.9931  140.9459  171.3406 C.3     1  UNL1        0.1636
     10 O         141.0584  142.0770  171.6523 O.3     1  UNL1       -0.3501
     11 C         140.1331  142.5988  170.5932 C.3     1  UNL1        0.1636
     12 C         140.1426  141.9896  169.2225 C.3     1  UNL1        0.1231
     13 N         138.5595  139.4969  164.5742 N.pl3   1  UNL1       -0.3160
     14 H         137.8462  138.8721  164.8388 H       1  UNL1        0.1484
     15 C         138.3779  140.3773  163.3735 C.3     1  UNL1        0.0931
     16 C         137.6863  139.8472  162.1525 C.3     1  UNL1        0.0261
     17 C         138.8879  141.7878  163.3936 C.ar    1  UNL1       -0.0025
     18 C         138.4436  142.7307  164.4722 C.ar    1  UNL1        0.0088
     19 C         138.9536  144.1412  164.4923 C.ar    1  UNL1        0.0586
     20 CL        138.5093  145.0841  165.5709 Cl      1  UNL1       -0.0822
     21 C         139.9080  144.6088  163.4338 C.ar    1  UNL1        0.0261
     22 C         140.3524  143.6659  162.3551 C.ar    1  UNL1        0.0538
     23 C         139.8424  142.2554  162.3350 C.ar    1  UNL1        0.0121
     24 N         141.3068  144.1334  161.2966 N.am    1  UNL1       -0.2499
     25 C         140.8954  145.2128  160.3396 C.2     1  UNL1        0.4053
     26 O         139.5296  145.8245  160.4412 O.2     1  UNL1       -0.2261
     27 H         142.2032  143.7319  161.2299 H       1  UNL1        0.1582
     28 O         141.8498  145.6804  159.2811 O.3     1  UNL1       -0.4383
     29 C         141.8190  145.0591  157.9161 C.3     1  UNL1        0.1707
     30 C         141.4235  145.8822  156.7262 C.3     1  UNL1        0.0474
     31 C         142.1838  143.6147  157.7411 C.3     1  UNL1        0.0474
     32 C         143.6516  138.5651  165.0234 C.3     1  UNL1        0.0527
     33 C         144.8162  139.4827  164.7961 C.3     1  UNL1        0.0588
     34 C         144.4463  142.8950  162.9835 C.ar    1  UNL1        0.0219
     35 S         144.5481  142.0837  164.2412 S.2     1  UNL1       -0.0755
     36 C         144.6851  140.6414  163.8525 C.ar    1  UNL1        0.0879
     37 N         144.6679  140.5613  162.3548 N.ar    1  UNL1       -0.2473
     38 C         144.5203  141.9540  161.8177 C.ar    1  UNL1        0.0615
     39 C         144.4577  142.3383  160.3692 C.3     1  UNL1        0.0523
     40 C         143.5752  145.1248  163.9931 C.3     1  UNL1        0.0056
     41 C         144.2967  144.3855  162.9055 C.3     1  UNL1        0.0342
@<TRIPOS>BOND
     1    40    41    1
     2    41    34    1
     3    34    35   ar
     4    35    36   ar
     5    36    33    1
     6    33    32    1
     7    32     1    1
     8     1     2   ar
     9     2     3   ar
    10     3     7    1
    11     7     8    1
    12     8     9    1
    13     9    10    1
    14    10    11    1
    15    11    12    1
    16     3     4   ar
    17     4     5   ar
    18     5    13    1
    19    13    15    1
    20    15    16    1
    21    15    17    1
    22    17    18   ar
    23    18    19   ar
    24    19    20    1
    25    19    21   ar
    26    21    22   ar
    27    22    24    1
    28    24    25   am
    29    25    26    2
    30    25    28    1
    31    28    29    1
    32    29    30    1
    33    29    31    1
    34    22    23   ar
    35     5     6   ar
    36    36    37   ar
    37    37    38   ar
    38    38    39    1
    39    38    34   ar
    40     6     1   ar
    41    12     7    1
    42    23    17   ar
    43    13    14    1
    44    24    27    1
@<TRIPOS>MOLECULE
*****
 41 44 0 0 0
SMALL
GASTEIGER

@<TRIPOS>ATOM
      1 C         140.2873  144.5783  163.3489 C.ar    1  UNL1        0.0620
      2 C         140.2946  144.6970  161.8536 C.ar    1  UNL1        0.0294
      3 C         141.5583  144.4410  161.0872 C.ar    1  UNL1        0.0519
      4 C         142.8147  144.0662  161.8160 C.ar    1  UNL1        0.0486
      5 C         142.8073  143.9474  163.3112 C.ar    1  UNL1        0.1295
      6 N         141.5437  144.2035  164.0777 N.ar    1  UNL1       -0.2351
      7 N         141.5657  144.5597  159.5918 N.pl3   1  UNL1       -0.3027
      8 C         140.5477  145.4193  158.9027 C.3     1  UNL1        0.1231
      9 C         140.5551  145.5380  157.4075 C.3     1  UNL1        0.1636
     10 O         141.5804  144.7972  156.6013 O.3     1  UNL1       -0.3501
     11 C         142.5983  143.9376  157.2904 C.3     1  UNL1        0.1636
     12 C         142.5910  143.8188  158.7857 C.3     1  UNL1        0.1231
     13 N         144.0637  143.5727  164.0400 N.pl3   1  UNL1       -0.3160
     14 H         144.5844  144.2631  164.5105 H       1  UNL1        0.1484
     15 C         144.5266  142.1460  164.0519 C.3     1  UNL1        0.0931
     16 C         145.9411  141.8132  163.6796 C.3     1  UNL1        0.0261
     17 C         143.5751  141.0519  164.4362 C.ar    1  UNL1       -0.0025
     18 C         143.3184  139.9152  163.4919 C.ar    1  UNL1        0.0088
     19 C         142.3669  138.8211  163.8761 C.ar    1  UNL1        0.0586
     20 CL        142.1102  137.6843  162.9318 Cl      1  UNL1       -0.0822
     21 C         141.6720  138.8638  165.2048 C.ar    1  UNL1        0.0261
     22 C         141.9287  140.0006  166.1492 C.ar    1  UNL1        0.0538
     23 C         142.8802  141.0947  165.7649 C.ar    1  UNL1        0.0121
     24 N         141.2338  140.0433  167.4778 N.am    1  UNL1       -0.2499
     25 C         141.8832  139.4320  168.6839 C.2     1  UNL1        0.4053
     26 O         143.2275  138.7780  168.5613 O.2     1  UNL1       -0.2261
     27 H         140.3515  140.4726  167.5583 H       1  UNL1        0.1582
     28 O         141.1883  139.4748  170.0125 O.3     1  UNL1       -0.4383
     29 C         140.4677  140.7182  170.4424 C.3     1  UNL1        0.1707
     30 C         141.2113  141.8064  171.1583 C.3     1  UNL1        0.0474
     31 C         139.0034  140.8732  170.1562 C.3     1  UNL1        0.0474
     32 C         139.0236  144.8343  164.1154 C.3     1  UNL1        0.0527
     33 C         137.7818  144.0561  163.7958 C.3     1  UNL1        0.0588
     34 C         138.1190  140.2051  164.1457 C.ar    1  UNL1        0.0219
     35 S         138.1587  141.5830  164.7375 S.2     1  UNL1       -0.0755
     36 C         137.8487  142.5649  163.6468 C.ar    1  UNL1        0.0879
     37 N         137.6175  141.7941  162.3809 N.ar    1  UNL1       -0.2473
     38 C         137.7845  140.3357  162.6892 C.ar    1  UNL1        0.0615
     39 C         137.6420  139.2062  161.7127 C.3     1  UNL1        0.0523
     40 C         138.0427  138.8184  166.3414 C.3     1  UNL1        0.0056
     41 C         138.3697  138.9221  164.8812 C.3     1  UNL1        0.0342
@<TRIPOS>BOND
     1    40    41    1
     2    41    34    1
     3    34    35   ar
     4    35    36   ar
     5    36    33    1
     6    33    32    1
     7    32     1    1
     8     1     2   ar
     9     2     3   ar
    10     3     7    1
    11     7     8    1
    12     8     9    1
    13     9    10    1
    14    10    11    1
    15    11    12    1
    16     3     4   ar
    17     4     5   ar
    18     5    13    1
    19    13    15    1
    20    15    16    1
    21    15    17    1
    22    17    18   ar
    23    18    19   ar
    24    19    20    1
    25    19    21   ar
    26    21    22   ar
    27    22    24    1
    28    24    25   am
    29    25    26    2
    30    25    28    1
    31    28    29    1
    32    29    30    1
    33    29    31    1
    34    22    23   ar
    35     5     6   ar
    36    36    37   ar
    37    37    38   ar
    38    38    39    1
    39    38    34   ar
    40     6     1   ar
    41    12     7    1
    42    23    17   ar
    43    13    14    1
    44    24    27    1
@<TRIPOS>MOLECULE
*****
 41 44 0 0 0
SMALL
GASTEIGER

@<TRIPOS>ATOM
      1 C         142.2825  139.2009  165.4460 C.ar    1  UNL1        0.0620
      2 C         142.0784  139.5789  166.8831 C.ar    1  UNL1        0.0294
      3 C         142.3967  140.9700  167.3451 C.ar    1  UNL1        0.0519
      4 C         142.9191  141.9831  166.3700 C.ar    1  UNL1        0.0486
      5 C         143.1232  141.6051  164.9329 C.ar    1  UNL1        0.1295
      6 N         142.8049  140.2140  164.4709 N.ar    1  UNL1       -0.2351
      7 N         142.1926  141.3481  168.7823 N.pl3   1  UNL1       -0.3027
      8 C         142.8908  142.5491  169.3483 C.3     1  UNL1        0.1231
      9 C         142.6867  142.9272  170.7854 C.3     1  UNL1        0.1636
     10 O         141.7845  142.1043  171.6566 O.3     1  UNL1       -0.3501
     11 C         141.0863  140.9034  171.0906 C.3     1  UNL1        0.1636
     12 C         141.2904  140.5253  169.6534 C.3     1  UNL1        0.1231
     13 N         143.6455  142.6181  163.9578 N.pl3   1  UNL1       -0.3160
     14 H         144.3271  142.3589  163.2963 H       1  UNL1        0.1484
     15 C         143.1294  144.0261  163.9904 C.3     1  UNL1        0.0931
     16 C         143.9964  145.1307  164.5180 C.3     1  UNL1        0.0261
     17 C         141.7464  144.3297  163.4955 C.ar    1  UNL1       -0.0025
     18 C         140.5849  144.2898  164.4437 C.ar    1  UNL1        0.0088
     19 C         139.2018  144.5934  163.9488 C.ar    1  UNL1        0.0586
     20 CL        138.0403  144.5535  164.8971 Cl      1  UNL1       -0.0822
     21 C         138.9802  144.9367  162.5056 C.ar    1  UNL1        0.0261
     22 C         140.1417  144.9766  161.5572 C.ar    1  UNL1        0.0538
     23 C         141.5248  144.6731  162.0521 C.ar    1  UNL1        0.0121
     24 N         139.9202  145.3200  160.1140 N.am    1  UNL1       -0.2499
     25 C         139.9212  144.2366  159.0765 C.2     1  UNL1        0.4053
     26 O         140.1438  142.8098  159.4823 O.2     1  UNL1       -0.2261
     27 H         139.7741  146.2564  159.8476 H       1  UNL1        0.1582
     28 O         139.6996  144.5800  157.6332 O.3     1  UNL1       -0.4383
     29 C         140.3710  145.7813  157.0366 C.3     1  UNL1        0.1707
     30 C         141.8627  145.9206  157.1101 C.3     1  UNL1        0.0474
     31 C         139.5507  146.8434  156.3663 C.3     1  UNL1        0.0474
     32 C         141.9643  137.8097  164.9839 C.3     1  UNL1        0.0527
     33 C         140.5479  137.4298  164.6687 C.3     1  UNL1        0.0588
     34 C         138.5611  139.3258  161.9257 C.ar    1  UNL1        0.0219
     35 S         139.4758  138.2149  162.3493 S.2     1  UNL1       -0.0755
     36 C         139.6977  138.3356  163.8279 C.ar    1  UNL1        0.0879
     37 N         138.9203  139.5210  164.3181 N.ar    1  UNL1       -0.2473
     38 C         138.2178  140.1330  163.1425 C.ar    1  UNL1        0.0615
     39 C         137.3283  141.3402  163.1776 C.3     1  UNL1        0.0523
     40 C         138.9966  139.3775  159.3649 C.3     1  UNL1        0.0056
     41 C         138.0751  139.5841  160.5303 C.3     1  UNL1        0.0342
@<TRIPOS>BOND
     1    40    41    1
     2    41    34    1
     3    34    35   ar
     4    35    36   ar
     5    36    33    1
     6    33    32    1
     7    32     1    1
     8     1     2   ar
     9     2     3   ar
    10     3     7    1
    11     7     8    1
    12     8     9    1
    13     9    10    1
    14    10    11    1
    15    11    12    1
    16     3     4   ar
    17     4     5   ar
    18     5    13    1
    19    13    15    1
    20    15    16    1
    21    15    17    1
    22    17    18   ar
    23    18    19   ar
    24    19    20    1
    25    19    21   ar
    26    21    22   ar
    27    22    24    1
    28    24    25   am
    29    25    26    2
    30    25    28    1
    31    28    29    1
    32    29    30    1
    33    29    31    1
    34    22    23   ar
    35     5     6   ar
    36    36    37   ar
    37    37    38   ar
    38    38    39    1
    39    38    34   ar
    40     6     1   ar
    41    12     7    1
    42    23    17   ar
    43    13    14    1
    44    24    27    1
@<TRIPOS>MOLECULE
*****
 41 44 0 0 0
SMALL
GASTEIGER

@<TRIPOS>ATOM
      1 C         139.8406  144.6034  163.4453 C.ar    1  UNL1        0.0620
      2 C         139.4666  144.5956  161.9928 C.ar    1  UNL1        0.0294
      3 C         140.5315  144.4626  160.9448 C.ar    1  UNL1        0.0519
      4 C         141.9704  144.3374  161.3495 C.ar    1  UNL1        0.0486
      5 C         142.3445  144.3452  162.8020 C.ar    1  UNL1        0.1295
      6 N         141.2796  144.4782  163.8500 N.ar    1  UNL1       -0.2351
      7 N         140.1574  144.4548  159.4922 N.pl3   1  UNL1       -0.3027
      8 C         139.4777  143.2564  158.8992 C.3     1  UNL1        0.1231
      9 C         139.1036  143.2486  157.4466 C.3     1  UNL1        0.1636
     10 O         139.4094  144.4393  156.5870 O.3     1  UNL1       -0.3501
     11 C         140.0892  145.6377  157.1800 C.3     1  UNL1        0.1636
     12 C         140.4632  145.6455  158.6326 C.3     1  UNL1        0.1231
     13 N         143.7834  144.2199  163.2066 N.pl3   1  UNL1       -0.3160
     14 H         144.4681  144.7754  162.7685 H       1  UNL1        0.1484
     15 C         144.1792  143.2484  164.2788 C.3     1  UNL1        0.0931
     16 C         144.7287  143.7512  165.5809 C.3     1  UNL1        0.0261
     17 C         144.0256  141.7741  164.0489 C.ar    1  UNL1       -0.0025
     18 C         143.6143  140.8777  165.1790 C.ar    1  UNL1        0.0088
     19 C         143.4607  139.4034  164.9492 C.ar    1  UNL1        0.0586
     20 CL        143.0494  138.5070  166.0793 Cl      1  UNL1       -0.0822
     21 C         143.7183  138.8255  163.5892 C.ar    1  UNL1        0.0261
     22 C         144.1296  139.7220  162.4590 C.ar    1  UNL1        0.0538
     23 C         144.2833  141.1963  162.6888 C.ar    1  UNL1        0.0121
     24 N         144.3873  139.1441  161.0990 N.am    1  UNL1       -0.2499
     25 C         143.3148  139.1852  160.0511 C.2     1  UNL1        0.4053
     26 O         141.9846  139.8042  160.3632 O.2     1  UNL1       -0.2261
     27 H         145.2603  138.7378  160.8941 H       1  UNL1        0.1582
     28 O         143.5725  138.6073  158.6910 O.3     1  UNL1       -0.4383
     29 C         142.5642  138.7892  157.5955 C.3     1  UNL1        0.1707
     30 C         142.4960  140.0872  156.8469 C.3     1  UNL1        0.0474
     31 C         141.6240  137.6730  157.2486 C.3     1  UNL1        0.0474
     32 C         138.7757  144.7364  164.4934 C.3     1  UNL1        0.0527
     33 C         137.7037  143.6937  164.6099 C.3     1  UNL1        0.0588
     34 C         138.8632  140.0013  164.3134 C.ar    1  UNL1        0.0219
     35 S         138.8317  141.3099  165.0461 S.2     1  UNL1       -0.0755
     36 C         138.0006  142.2689  164.2465 C.ar    1  UNL1        0.0879
     37 N         137.5184  141.5532  163.0196 N.ar    1  UNL1       -0.2473
     38 C         138.0515  140.1517  163.0610 C.ar    1  UNL1        0.0615
     39 C         137.8146  139.0876  162.0308 C.3     1  UNL1        0.0523
     40 C         138.8012  137.5877  165.2729 C.3     1  UNL1        0.0056
     41 C         139.5805  138.7603  164.7555 C.3     1  UNL1        0.0342
@<TRIPOS>BOND
     1    40    41    1
     2    41    34    1
     3    34    35   ar
     4    35    36   ar
     5    36    33    1
     6    33    32    1
     7    32     1    1
     8     1     2   ar
     9     2     3   ar
    10     3     7    1
    11     7     8    1
    12     8     9    1
    13     9    10    1
    14    10    11    1
    15    11    12    1
    16     3     4   ar
    17     4     5   ar
    18     5    13    1
    19    13    15    1
    20    15    16    1
    21    15    17    1
    22    17    18   ar
    23    18    19   ar
    24    19    20    1
    25    19    21   ar
    26    21    22   ar
    27    22    24    1
    28    24    25   am
    29    25    26    2
    30    25    28    1
    31    28    29    1
    32    29    30    1
    33    29    31    1
    34    22    23   ar
    35     5     6   ar
    36    36    37   ar
    37    37    38   ar
    38    38    39    1
    39    38    34   ar
    40     6     1   ar
    41    12     7    1
    42    23    17   ar
    43    13    14    1
    44    24    27    1
@<TRIPOS>MOLECULE
*****
 41 44 0 0 0
SMALL
GASTEIGER

@<TRIPOS>ATOM
      1 C         137.8924  142.7194  163.3360 C.ar    1  UNL1        0.0620
      2 C         138.1737  143.1726  161.9341 C.ar    1  UNL1        0.0294
      3 C         138.4626  142.1627  160.8632 C.ar    1  UNL1        0.0519
      4 C         138.4702  140.6998  161.1944 C.ar    1  UNL1        0.0486
      5 C         138.1889  140.2466  162.5963 C.ar    1  UNL1        0.1295
      6 N         137.9000  141.2565  163.6671 N.ar    1  UNL1       -0.2351
      7 N         138.7440  142.6159  159.4612 N.pl3   1  UNL1       -0.3027
      8 C         138.0778  141.9322  158.3042 C.3     1  UNL1        0.1231
      9 C         138.3591  142.3853  156.9022 C.3     1  UNL1        0.1636
     10 O         139.3067  143.5220  156.6572 O.3     1  UNL1       -0.3501
     11 C         139.9729  144.2057  157.8143 C.3     1  UNL1        0.1636
     12 C         139.6916  143.7525  159.2163 C.3     1  UNL1        0.1231
     13 N         138.1965  138.7837  162.9274 N.pl3   1  UNL1       -0.3160
     14 H         137.5018  138.1918  162.5582 H       1  UNL1        0.1484
     15 C         139.2625  138.2225  163.8210 C.3     1  UNL1        0.0931
     16 C         138.8914  137.6162  165.1420 C.3     1  UNL1        0.0261
     17 C         140.6997  138.2675  163.3938 C.ar    1  UNL1       -0.0025
     18 C         141.7432  138.8051  164.3275 C.ar    1  UNL1        0.0088
     19 C         143.1804  138.8501  163.9003 C.ar    1  UNL1        0.0586
     20 CL        144.2239  139.3878  164.8340 Cl      1  UNL1       -0.0822
     21 C         143.5740  138.3575  162.5393 C.ar    1  UNL1        0.0261
     22 C         142.5304  137.8198  161.6055 C.ar    1  UNL1        0.0538
     23 C         141.0933  137.7748  162.0327 C.ar    1  UNL1        0.0121
     24 N         142.9241  137.3272  160.2445 N.am    1  UNL1       -0.2499
     25 C         142.8014  138.2324  159.0547 C.2     1  UNL1        0.4053
     26 O         142.2850  139.6303  159.2259 O.2     1  UNL1       -0.2261
     27 H         143.2630  136.4097  160.1321 H       1  UNL1        0.1582
     28 O         143.1950  137.7397  157.6937 O.3     1  UNL1       -0.4383
     29 C         142.2038  137.7730  156.5683 C.3     1  UNL1        0.1707
     30 C         141.3587  136.5684  156.2774 C.3     1  UNL1        0.0474
     31 C         142.0577  139.0110  155.7340 C.3     1  UNL1        0.0474
     32 C         137.6034  143.7293  164.4069 C.3     1  UNL1        0.0527
     33 C         138.7303  144.4739  165.0593 C.3     1  UNL1        0.0588
     34 C         141.7322  142.3455  166.2938 C.ar    1  UNL1        0.0219
     35 S         140.2988  142.7748  166.4001 S.2     1  UNL1       -0.0755
     36 C         140.0352  143.7816  165.3199 C.ar    1  UNL1        0.0879
     37 N         141.3056  143.9746  164.5460 N.ar    1  UNL1       -0.2473
     38 C         142.3544  143.0871  165.1479 C.ar    1  UNL1        0.0615
     39 C         143.7758  142.9629  164.6851 C.3     1  UNL1        0.0523
     40 C         141.6476  140.2107  167.7721 C.3     1  UNL1        0.0056
     41 C         142.4222  141.3496  167.1781 C.3     1  UNL1        0.0342
@<TRIPOS>BOND
     1    40    41    1
     2    41    34    1
     3    34    35   ar
     4    35    36   ar
     5    36    33    1
     6    33    32    1
     7    32     1    1
     8     1     2   ar
     9     2     3   ar
    10     3     7    1
    11     7     8    1
    12     8     9    1
    13     9    10    1
    14    10    11    1
    15    11    12    1
    16     3     4   ar
    17     4     5   ar
    18     5    13    1
    19    13    15    1
    20    15    16    1
    21    15    17    1
    22    17    18   ar
    23    18    19   ar
    24    19    20    1
    25    19    21   ar
    26    21    22   ar
    27    22    24    1
    28    24    25   am
    29    25    26    2
    30    25    28    1
    31    28    29    1
    32    29    30    1
    33    29    31    1
    34    22    23   ar
    35     5     6   ar
    36    36    37   ar
    37    37    38   ar
    38    38    39    1
    39    38    34   ar
    40     6     1   ar
    41    12     7    1
    42    23    17   ar
    43    13    14    1
    44    24    27    1
@<TRIPOS>MOLECULE
*****
 41 44 0 0 0
SMALL
GASTEIGER

@<TRIPOS>ATOM
      1 C         137.9389  142.8974  162.7847 C.ar    1  UNL1        0.0620
      2 C         138.1011  143.0056  161.2975 C.ar    1  UNL1        0.0294
      3 C         138.3452  141.7731  160.4781 C.ar    1  UNL1        0.0519
      4 C         138.4272  140.4325  161.1460 C.ar    1  UNL1        0.0486
      5 C         138.2650  140.3244  162.6333 C.ar    1  UNL1        0.1295
      6 N         138.0209  141.5569  163.4526 N.ar    1  UNL1       -0.2351
      7 N         138.5073  141.8812  158.9908 N.pl3   1  UNL1       -0.3027
      8 C         139.2149  143.0633  158.3974 C.3     1  UNL1        0.1231
      9 C         139.3770  143.1714  156.9102 C.3     1  UNL1        0.1636
     10 O         138.8316  142.0974  156.0162 O.3     1  UNL1       -0.3501
     11 C         138.1241  140.9153  156.6095 C.3     1  UNL1        0.1636
     12 C         137.9619  140.8072  158.0969 C.3     1  UNL1        0.1231
     13 N         138.3470  138.9838  163.3012 N.pl3   1  UNL1       -0.3160
     14 H         137.8310  138.2244  162.9458 H       1  UNL1        0.1484
     15 C         139.2152  138.8002  164.5105 C.3     1  UNL1        0.0931
     16 C         138.5902  138.5741  165.8552 C.3     1  UNL1        0.0261
     17 C         140.7085  138.8427  164.3751 C.ar    1  UNL1       -0.0025
     18 C         141.5779  138.4220  165.5228 C.ar    1  UNL1        0.0088
     19 C         143.0712  138.4645  165.3874 C.ar    1  UNL1        0.0586
     20 CL        143.9405  138.0438  166.5351 Cl      1  UNL1       -0.0822
     21 C         143.6951  138.9277  164.1044 C.ar    1  UNL1        0.0261
     22 C         142.8257  139.3485  162.9567 C.ar    1  UNL1        0.0538
     23 C         141.3324  139.3060  163.0920 C.ar    1  UNL1        0.0121
     24 N         143.4496  139.8117  161.6737 N.am    1  UNL1       -0.2499
     25 C         143.5055  138.8903  160.4914 C.2     1  UNL1        0.4053
     26 O         142.9375  137.5057  160.5920 O.2     1  UNL1       -0.2261
     27 H         143.8224  140.7205  161.6076 H       1  UNL1        0.1582
     28 O         144.1294  139.3536  159.2083 O.3     1  UNL1       -0.4383
     29 C         143.3100  140.1124  158.2070 C.3     1  UNL1        0.1707
     30 C         141.8276  140.2430  158.3955 C.3     1  UNL1        0.0474
     31 C         143.9729  140.7408  157.0171 C.3     1  UNL1        0.0474
     32 C         137.6948  144.1300  163.6041 C.3     1  UNL1        0.0527
     33 C         138.5927  144.4508  164.7621 C.3     1  UNL1        0.0588
     34 C         142.4044  144.2656  164.0533 C.ar    1  UNL1        0.0219
     35 S         141.0594  144.8915  163.8313 S.2     1  UNL1       -0.0755
     36 C         140.0612  144.1569  164.6763 C.ar    1  UNL1        0.0879
     37 N         140.7892  143.0771  165.4206 N.ar    1  UNL1       -0.2473
     38 C         142.2374  143.1442  165.0355 C.ar    1  UNL1        0.0615
     39 C         143.3272  142.2474  165.5434 C.3     1  UNL1        0.0523
     40 C         144.3401  143.8035  162.3830 C.3     1  UNL1        0.0056
     41 C         143.6905  144.6870  163.4066 C.3     1  UNL1        0.0342
@<TRIPOS>BOND
     1    40    41    1
     2    41    34    1
     3    34    35   ar
     4    35    36   ar
     5    36    33    1
     6    33    32    1
     7    32     1    1
     8     1     2   ar
     9     2     3   ar
    10     3     7    1
    11     7     8    1
    12     8     9    1
    13     9    10    1
    14    10    11    1
    15    11    12    1
    16     3     4   ar
    17     4     5   ar
    18     5    13    1
    19    13    15    1
    20    15    16    1
    21    15    17    1
    22    17    18   ar
    23    18    19   ar
    24    19    20    1
    25    19    21   ar
    26    21    22   ar
    27    22    24    1
    28    24    25   am
    29    25    26    2
    30    25    28    1
    31    28    29    1
    32    29    30    1
    33    29    31    1
    34    22    23   ar
    35     5     6   ar
    36    36    37   ar
    37    37    38   ar
    38    38    39    1
    39    38    34   ar
    40     6     1   ar
    41    12     7    1
    42    23    17   ar
    43    13    14    1
    44    24    27    1
@<TRIPOS>MOLECULE
*****
 41 44 0 0 0
SMALL
GASTEIGER

@<TRIPOS>ATOM
      1 C         142.1348  139.2095  165.6168 C.ar    1  UNL1        0.0620
      2 C         142.0686  139.8304  166.9806 C.ar    1  UNL1        0.0294
      3 C         140.7520  140.2923  167.5313 C.ar    1  UNL1        0.0519
      4 C         139.5016  140.1333  166.7180 C.ar    1  UNL1        0.0486
      5 C         139.5678  139.5125  165.3542 C.ar    1  UNL1        0.1295
      6 N         140.8844  139.0506  164.8036 N.ar    1  UNL1       -0.2351
      7 N         140.6858  140.9132  168.8952 N.pl3   1  UNL1       -0.3027
      8 C         140.8298  140.0556  170.1174 C.3     1  UNL1        0.1231
      9 C         140.7635  140.6764  171.4812 C.3     1  UNL1        0.1636
     10 O         140.5533  142.1549  171.6229 O.3     1  UNL1       -0.3501
     11 C         140.4093  143.0125  170.4007 C.3     1  UNL1        0.1636
     12 C         140.4756  142.3916  169.0368 C.3     1  UNL1        0.1231
     13 N         138.3174  139.3536  164.5410 N.pl3   1  UNL1       -0.3160
     14 H         137.5841  138.7860  164.8716 H       1  UNL1        0.1484
     15 C         138.1845  140.0593  163.2241 C.3     1  UNL1        0.0931
     16 C         137.8298  139.2839  161.9900 C.3     1  UNL1        0.0261
     17 C         138.4061  141.5405  163.1413 C.ar    1  UNL1       -0.0025
     18 C         138.0452  142.4190  164.3023 C.ar    1  UNL1        0.0088
     19 C         138.2668  143.9002  164.2194 C.ar    1  UNL1        0.0586
     20 CL        137.9059  144.7787  165.3804 Cl      1  UNL1       -0.0822
     21 C         138.8494  144.5030  162.9756 C.ar    1  UNL1        0.0261
     22 C         139.2105  143.6245  161.8145 C.ar    1  UNL1        0.0538
     23 C         138.9888  142.1433  161.8973 C.ar    1  UNL1        0.0121
     24 N         139.7931  144.2272  160.5706 N.am    1  UNL1       -0.2499
     25 C         141.2448  144.6025  160.5280 C.2     1  UNL1        0.4053
     26 O         142.1138  144.3750  161.7292 O.2     1  UNL1       -0.2261
     27 H         139.2227  144.3765  159.7822 H       1  UNL1        0.1582
     28 O         141.8274  145.2053  159.2841 O.3     1  UNL1       -0.4383
     29 C         141.0934  145.0916  157.9808 C.3     1  UNL1        0.1707
     30 C         140.2384  146.2264  157.5002 C.3     1  UNL1        0.0474
     31 C         141.2145  143.8431  157.1583 C.3     1  UNL1        0.0474
     32 C         143.4514  138.7475  165.0661 C.3     1  UNL1        0.0527
     33 C         144.1418  139.5483  164.0021 C.3     1  UNL1        0.0588
     34 C         142.5809  140.2287  160.5140 C.ar    1  UNL1        0.0219
     35 S         142.9358  140.6774  161.9007 S.2     1  UNL1       -0.0755
     36 C         143.6182  139.5371  162.5965 C.ar    1  UNL1        0.0879
     37 N         143.6850  138.3836  161.6399 N.ar    1  UNL1       -0.2473
     38 C         143.0440  138.8110  160.3529 C.ar    1  UNL1        0.0615
     39 C         142.8925  137.9687  159.1211 C.3     1  UNL1        0.0523
     40 C         140.5342  140.6396  158.9674 C.3     1  UNL1        0.0056
     41 C         141.8851  141.0528  159.4716 C.3     1  UNL1        0.0342
@<TRIPOS>BOND
     1    40    41    1
     2    41    34    1
     3    34    35   ar
     4    35    36   ar
     5    36    33    1
     6    33    32    1
     7    32     1    1
     8     1     2   ar
     9     2     3   ar
    10     3     7    1
    11     7     8    1
    12     8     9    1
    13     9    10    1
    14    10    11    1
    15    11    12    1
    16     3     4   ar
    17     4     5   ar
    18     5    13    1
    19    13    15    1
    20    15    16    1
    21    15    17    1
    22    17    18   ar
    23    18    19   ar
    24    19    20    1
    25    19    21   ar
    26    21    22   ar
    27    22    24    1
    28    24    25   am
    29    25    26    2
    30    25    28    1
    31    28    29    1
    32    29    30    1
    33    29    31    1
    34    22    23   ar
    35     5     6   ar
    36    36    37   ar
    37    37    38   ar
    38    38    39    1
    39    38    34   ar
    40     6     1   ar
    41    12     7    1
    42    23    17   ar
    43    13    14    1
    44    24    27    1
@<TRIPOS>MOLECULE
*****
 41 44 0 0 0
SMALL
GASTEIGER

@<TRIPOS>ATOM
      1 C         143.8267  142.5999  164.5844 C.ar    1  UNL1        0.0620
      2 C         143.3499  142.5526  166.0058 C.ar    1  UNL1        0.0294
      3 C         143.1017  141.2308  166.6699 C.ar    1  UNL1        0.0519
      4 C         143.3302  139.9563  165.9127 C.ar    1  UNL1        0.0486
      5 C         143.8070  140.0036  164.4913 C.ar    1  UNL1        0.1295
      6 N         144.0553  141.3254  163.8272 N.ar    1  UNL1       -0.2351
      7 N         142.6248  141.1834  168.0914 N.pl3   1  UNL1       -0.3027
      8 C         142.3636  142.4581  168.8377 C.3     1  UNL1        0.1231
      9 C         141.8868  142.4108  170.2591 C.3     1  UNL1        0.1636
     10 O         141.6712  141.0887  170.9342 O.3     1  UNL1       -0.3501
     11 C         141.9324  139.8140  170.1879 C.3     1  UNL1        0.1636
     12 C         142.4093  139.8614  168.7665 C.3     1  UNL1        0.1231
     13 N         144.0355  138.7291  163.7340 N.pl3   1  UNL1       -0.3160
     14 H         144.7643  138.1228  163.9994 H       1  UNL1        0.1484
     15 C         143.1537  138.3785  162.5724 C.3     1  UNL1        0.0931
     16 C         143.7634  137.9585  161.2678 C.3     1  UNL1        0.0261
     17 C         141.6621  138.4478  162.7153 C.ar    1  UNL1       -0.0025
     18 C         140.9905  137.8019  163.8908 C.ar    1  UNL1        0.0088
     19 C         139.4989  137.8712  164.0337 C.ar    1  UNL1        0.0586
     20 CL        138.8273  137.2253  165.2092 Cl      1  UNL1       -0.0822
     21 C         138.6790  138.5864  163.0012 C.ar    1  UNL1        0.0261
     22 C         139.3506  139.2323  161.8257 C.ar    1  UNL1        0.0538
     23 C         140.8421  139.1630  161.6828 C.ar    1  UNL1        0.0121
     24 N         138.5306  139.9475  160.7932 N.am    1  UNL1       -0.2499
     25 C         138.6369  139.5571  159.3488 C.2     1  UNL1        0.4053
     26 O         139.5631  138.4515  158.9369 O.2     1  UNL1       -0.2261
     27 H         137.9227  140.6732  161.0635 H       1  UNL1        0.1582
     28 O         137.8169  140.2723  158.3162 O.3     1  UNL1       -0.4383
     29 C         138.1725  141.6732  157.9146 C.3     1  UNL1        0.1707
     30 C         139.3599  142.3515  158.5309 C.3     1  UNL1        0.0474
     31 C         137.3406  142.3956  156.8967 C.3     1  UNL1        0.0474
     32 C         144.0750  143.9218  163.9202 C.3     1  UNL1        0.0527
     33 C         143.0658  144.4808  162.9617 C.3     1  UNL1        0.0588
     34 C         139.2686  143.6798  163.0382 C.ar    1  UNL1        0.0219
     35 S         140.6156  143.5810  162.3855 S.2     1  UNL1       -0.0755
     36 C         141.6001  144.3236  163.2395 C.ar    1  UNL1        0.0879
     37 N         140.8617  144.8813  164.4200 N.ar    1  UNL1       -0.2473
     38 C         139.4208  144.4834  164.2957 C.ar    1  UNL1        0.0615
     39 C         138.3245  144.8286  165.2595 C.3     1  UNL1        0.0523
     40 C         137.2884  142.0215  163.3189 C.3     1  UNL1        0.0056
     41 C         137.9935  143.0802  162.5239 C.3     1  UNL1        0.0342
@<TRIPOS>BOND
     1    40    41    1
     2    41    34    1
     3    34    35   ar
     4    35    36   ar
     5    36    33    1
     6    33    32    1
     7    32     1    1
     8     1     2   ar
     9     2     3   ar
    10     3     7    1
    11     7     8    1
    12     8     9    1
    13     9    10    1
    14    10    11    1
    15    11    12    1
    16     3     4   ar
    17     4     5   ar
    18     5    13    1
    19    13    15    1
    20    15    16    1
    21    15    17    1
    22    17    18   ar
    23    18    19   ar
    24    19    20    1
    25    19    21   ar
    26    21    22   ar
    27    22    24    1
    28    24    25   am
    29    25    26    2
    30    25    28    1
    31    28    29    1
    32    29    30    1
    33    29    31    1
    34    22    23   ar
    35     5     6   ar
    36    36    37   ar
    37    37    38   ar
    38    38    39    1
    39    38    34   ar
    40     6     1   ar
    41    12     7    1
    42    23    17   ar
    43    13    14    1
    44    24    27    1
@<TRIPOS>MOLECULE
*****
 41 44 0 0 0
SMALL
GASTEIGER

@<TRIPOS>ATOM
      1 C         138.2517  142.9875  162.5305 C.ar    1  UNL1        0.0620
      2 C         138.4334  142.4141  161.1564 C.ar    1  UNL1        0.0294
      3 C         138.4019  140.9283  160.9536 C.ar    1  UNL1        0.0519
      4 C         138.1887  140.0158  162.1249 C.ar    1  UNL1        0.0486
      5 C         138.0069  140.5891  163.4990 C.ar    1  UNL1        0.1295
      6 N         138.0385  142.0750  163.7018 N.ar    1  UNL1       -0.2351
      7 N         138.5837  140.3548  159.5794 N.pl3   1  UNL1       -0.3027
      8 C         139.4226  139.1268  159.3842 C.3     1  UNL1        0.1231
      9 C         139.6043  138.5533  158.0101 C.3     1  UNL1        0.1636
     10 O         138.9471  139.2079  156.8312 O.3     1  UNL1       -0.3501
     11 C         138.1082  140.4360  157.0265 C.3     1  UNL1        0.1636
     12 C         137.9265  141.0094  158.4007 C.3     1  UNL1        0.1231
     13 N         137.7937  139.6766  164.6702 N.pl3   1  UNL1       -0.3160
     14 H         136.9645  139.7380  165.1974 H       1  UNL1        0.1484
     15 C         138.8437  138.6707  165.0382 C.3     1  UNL1        0.0931
     16 C         138.4663  137.2334  165.2434 C.3     1  UNL1        0.0261
     17 C         140.2711  139.1019  165.2011 C.ar    1  UNL1       -0.0025
     18 C         141.2797  138.7729  164.1407 C.ar    1  UNL1        0.0088
     19 C         142.7071  139.2041  164.3035 C.ar    1  UNL1        0.0586
     20 CL        143.7156  138.8750  163.2431 Cl      1  UNL1       -0.0822
     21 C         143.1260  139.9643  165.5268 C.ar    1  UNL1        0.0261
     22 C         142.1174  140.2934  166.5873 C.ar    1  UNL1        0.0538
     23 C         140.6900  139.8622  166.4245 C.ar    1  UNL1        0.0121
     24 N         142.5363  141.0537  167.8106 N.am    1  UNL1       -0.2499
     25 C         142.8769  140.3165  169.0718 C.2     1  UNL1        0.4053
     26 O         142.7985  138.8191  169.1097 O.2     1  UNL1       -0.2261
     27 H         142.5877  142.0365  167.7858 H       1  UNL1        0.1582
     28 O         143.2958  141.0768  170.2952 O.3     1  UNL1       -0.4383
     29 C         142.4552  142.2138  170.7959 C.3     1  UNL1        0.1707
     30 C         143.0269  143.5993  170.8564 C.3     1  UNL1        0.0474
     31 C         141.0429  141.9654  171.2362 C.3     1  UNL1        0.0474
     32 C         138.2832  144.4734  162.7334 C.3     1  UNL1        0.0527
     33 C         139.4138  145.2833  162.1714 C.3     1  UNL1        0.0588
     34 C         142.9656  144.5955  163.5777 C.ar    1  UNL1        0.0219
     35 S         141.5846  145.1619  163.7264 S.2     1  UNL1       -0.0755
     36 C         140.8328  144.8898  162.4572 C.ar    1  UNL1        0.0879
     37 N         141.7491  144.1552  161.5241 N.ar    1  UNL1       -0.2473
     38 C         143.0672  143.9733  162.2165 C.ar    1  UNL1        0.0615
     39 C         144.2749  143.2893  161.6478 C.3     1  UNL1        0.0523
     40 C         144.4198  143.4035  165.3706 C.3     1  UNL1        0.0056
     41 C         144.0538  144.6429  164.6089 C.3     1  UNL1        0.0342
@<TRIPOS>BOND
     1    40    41    1
     2    41    34    1
     3    34    35   ar
     4    35    36   ar
     5    36    33    1
     6    33    32    1
     7    32     1    1
     8     1     2   ar
     9     2     3   ar
    10     3     7    1
    11     7     8    1
    12     8     9    1
    13     9    10    1
    14    10    11    1
    15    11    12    1
    16     3     4   ar
    17     4     5   ar
    18     5    13    1
    19    13    15    1
    20    15    16    1
    21    15    17    1
    22    17    18   ar
    23    18    19   ar
    24    19    20    1
    25    19    21   ar
    26    21    22   ar
    27    22    24    1
    28    24    25   am
    29    25    26    2
    30    25    28    1
    31    28    29    1
    32    29    30    1
    33    29    31    1
    34    22    23   ar
    35     5     6   ar
    36    36    37   ar
    37    37    38   ar
    38    38    39    1
    39    38    34   ar
    40     6     1   ar
    41    12     7    1
    42    23    17   ar
    43    13    14    1
    44    24    27    1
