@<TRIPOS>MOLECULE
*****
 36 40 0 0 0
SMALL
GASTEIGER

@<TRIPOS>ATOM
      1 C         137.9477  140.4570  163.3086 C.ar    1  UNL1        0.1533
      2 C         138.6108  140.6747  164.6364 C.ar    1  UNL1        0.0527
      3 C         139.3816  139.5611  165.2813 C.ar    1  UNL1        0.0510
      4 C         139.4893  138.2300  164.5984 C.ar    1  UNL1        0.0160
      5 C         138.8263  138.0123  163.2707 C.ar    1  UNL1        0.0190
      6 C         138.0554  139.1259  162.6257 C.ar    1  UNL1        0.0850
      7 N         140.0446  139.7789  166.6091 N.pl3   1  UNL1       -0.3046
      8 C         139.2108  139.9716  167.8410 C.3     1  UNL1        0.1081
      9 C         139.8738  140.1894  169.1689 C.3     1  UNL1        0.0939
     10 N         141.3704  140.2143  169.2647 N.3     1  UNL1       -0.2677
     11 C         142.2042  140.0215  168.0328 C.3     1  UNL1        0.0939
     12 C         141.5413  139.8038  166.7050 C.3     1  UNL1        0.1081
     13 C         142.0335  140.4320  170.5925 C.3     1  UNL1        0.1043
     14 C         141.9115  141.7580  171.2832 C.3     1  UNL1        0.1544
     15 O         140.6763  142.0831  172.0697 O.3     1  UNL1       -0.3805
     16 H         139.9169  142.1424  171.4692 H       1  UNL1        0.2105
     17 C         137.6374  142.9897  162.8191 C.3     1  UNL1        0.2525
     18 O         137.1769  141.5706  162.6637 O.3     1  UNL1       -0.4701
     19 N         137.3924  138.9082  161.2979 N.pl3   1  UNL1       -0.2802
     20 H         136.4852  138.5280  161.2572 H       1  UNL1        0.1552
     21 C         138.1116  139.2696  160.0322 C.ar    1  UNL1        0.2208
     22 N         139.4361  138.6405  159.7163 N.ar    1  UNL1       -0.2111
     23 C         140.1553  139.0020  158.4506 C.ar    1  UNL1        0.1147
     24 C         139.5500  139.9926  157.5007 C.ar    1  UNL1        0.0960
     25 CL        140.2691  140.3541  156.2350 Cl      1  UNL1       -0.0790
     26 C         138.2254  140.6218  157.8167 C.ar    1  UNL1        0.1138
     27 N         137.5063  140.2603  159.0824 N.ar    1  UNL1       -0.2111
     28 C         137.6200  141.6124  156.8668 C.ar    1  UNL1        0.1031
     29 C         136.3641  141.4165  156.0705 C.ar    1  UNL1        0.1196
     30 N         136.1322  142.6559  155.2581 N.ar    1  UNL1       -0.2248
     31 C         137.2449  143.6179  155.5523 C.ar    1  UNL1        0.1479
     32 C         137.5396  144.9977  155.0433 C.ar    1  UNL1        0.0374
     33 C         138.7538  145.7327  155.5286 C.ar    1  UNL1        0.0046
     34 C         139.6733  145.0878  156.5228 C.ar    1  UNL1        0.0191
     35 C         139.3786  143.7079  157.0318 C.ar    1  UNL1        0.0815
     36 N         138.1644  142.9730  156.5466 N.ar    1  UNL1       -0.2874
@<TRIPOS>BOND
     1    17    18    1
     2    18     1    1
     3     1     2   ar
     4     2     3   ar
     5     3     7    1
     6     7     8    1
     7     8     9    1
     8     9    10    1
     9    10    13    1
    10    13    14    1
    11    14    15    1
    12    10    11    1
    13    11    12    1
    14     3     4   ar
    15     4     5   ar
    16     5     6   ar
    17     6    19    1
    18    19    21    1
    19    21    22   ar
    20    22    23   ar
    21    23    24   ar
    22    24    25    1
    23    24    26   ar
    24    26    28    1
    25    28    29   ar
    26    29    30   ar
    27    30    31   ar
    28    31    32   ar
    29    32    33   ar
    30    33    34   ar
    31    34    35   ar
    32    35    36   ar
    33    26    27   ar
    34     6     1   ar
    35    27    21   ar
    36    12     7    1
    37    36    28   ar
    38    36    31   ar
    39    15    16    1
    40    19    20    1
@<TRIPOS>MOLECULE
*****
 36 40 0 0 0
SMALL
GASTEIGER

@<TRIPOS>ATOM
      1 C         142.1684  144.4060  163.1535 C.ar    1  UNL1        0.1533
      2 C         142.2540  143.5603  164.3895 C.ar    1  UNL1        0.0527
      3 C         141.0182  143.2761  165.1908 C.ar    1  UNL1        0.0510
      4 C         139.6969  143.8375  164.7561 C.ar    1  UNL1        0.0160
      5 C         139.6114  144.6832  163.5202 C.ar    1  UNL1        0.0190
      6 C         140.8471  144.9674  162.7188 C.ar    1  UNL1        0.0850
      7 N         141.1038  142.4304  166.4267 N.pl3   1  UNL1       -0.3046
      8 C         141.8569  141.1335  166.3973 C.3     1  UNL1        0.1081
      9 C         141.9426  140.2878  167.6332 C.3     1  UNL1        0.0939
     10 N         141.2752  140.7390  168.8984 N.3     1  UNL1       -0.2677
     11 C         140.5221  142.0359  168.9278 C.3     1  UNL1        0.0939
     12 C         140.4364  142.8816  167.6919 C.3     1  UNL1        0.1081
     13 C         141.3608  139.8933  170.1344 C.3     1  UNL1        0.1043
     14 C         142.5538  139.0123  170.3590 C.3     1  UNL1        0.1544
     15 O         143.6953  139.4963  171.2031 O.3     1  UNL1       -0.3805
     16 H         144.1273  140.2456  170.7639 H       1  UNL1        0.2105
     17 C         144.3792  143.5882  162.0609 C.3     1  UNL1        0.2525
     18 O         143.4042  144.6903  162.3522 O.3     1  UNL1       -0.4701
     19 N         140.7615  145.8131  161.4829 N.pl3   1  UNL1       -0.2802
     20 H         140.6853  146.7916  161.5603 H       1  UNL1        0.1552
     21 C         140.7919  145.1680  160.1291 C.ar    1  UNL1        0.2208
     22 N         141.8249  145.5829  159.1237 N.ar    1  UNL1       -0.2111
     23 C         141.8553  144.9378  157.7698 C.ar    1  UNL1        0.1147
     24 C         140.8528  143.8778  157.4214 C.ar    1  UNL1        0.0960
     25 CL        140.8832  143.2326  156.0676 Cl      1  UNL1       -0.0790
     26 C         139.8198  143.4628  158.4269 C.ar    1  UNL1        0.1138
     27 N         139.7894  144.1080  159.7807 N.ar    1  UNL1       -0.2111
     28 C         138.8173  142.4028  158.0785 C.ar    1  UNL1        0.1031
     29 C         138.6543  141.0820  158.7704 C.ar    1  UNL1        0.1196
     30 N         137.5380  140.3404  158.0965 N.ar    1  UNL1       -0.2248
     31 C         137.0112  141.2030  156.9882 C.ar    1  UNL1        0.1479
     32 C         135.9137  140.9925  155.9876 C.ar    1  UNL1        0.0374
     33 C         135.6068  142.0566  154.9760 C.ar    1  UNL1        0.0046
     34 C         136.3974  143.3312  154.9649 C.ar    1  UNL1        0.0191
     35 C         137.4949  143.5418  155.9654 C.ar    1  UNL1        0.0815
     36 N         137.8018  142.4777  156.9770 N.ar    1  UNL1       -0.2874
@<TRIPOS>BOND
     1    17    18    1
     2    18     1    1
     3     1     2   ar
     4     2     3   ar
     5     3     7    1
     6     7     8    1
     7     8     9    1
     8     9    10    1
     9    10    13    1
    10    13    14    1
    11    14    15    1
    12    10    11    1
    13    11    12    1
    14     3     4   ar
    15     4     5   ar
    16     5     6   ar
    17     6    19    1
    18    19    21    1
    19    21    22   ar
    20    22    23   ar
    21    23    24   ar
    22    24    25    1
    23    24    26   ar
    24    26    28    1
    25    28    29   ar
    26    29    30   ar
    27    30    31   ar
    28    31    32   ar
    29    32    33   ar
    30    33    34   ar
    31    34    35   ar
    32    35    36   ar
    33    26    27   ar
    34     6     1   ar
    35    27    21   ar
    36    12     7    1
    37    36    28   ar
    38    36    31   ar
    39    15    16    1
    40    19    20    1
@<TRIPOS>MOLECULE
*****
 36 40 0 0 0
SMALL
GASTEIGER

@<TRIPOS>ATOM
      1 C         142.0115  137.9767  163.1809 C.ar    1  UNL1        0.1533
      2 C         141.8739  138.5978  164.5394 C.ar    1  UNL1        0.0527
      3 C         142.9762  139.4549  165.0873 C.ar    1  UNL1        0.0510
      4 C         144.2162  139.6909  164.2769 C.ar    1  UNL1        0.0160
      5 C         144.3537  139.0698  162.9185 C.ar    1  UNL1        0.0190
      6 C         143.2514  138.2127  162.3705 C.ar    1  UNL1        0.0850
      7 N         142.8386  140.0760  166.4457 N.pl3   1  UNL1       -0.3046
      8 C         142.6910  139.2042  167.6574 C.3     1  UNL1        0.1081
      9 C         142.5533  139.8252  169.0160 C.3     1  UNL1        0.0939
     10 N         142.5632  141.3179  169.1626 N.3     1  UNL1       -0.2677
     11 C         142.7108  142.1897  167.9509 C.3     1  UNL1        0.0939
     12 C         142.8485  141.5687  166.5925 C.3     1  UNL1        0.1081
     13 C         142.4256  141.9391  170.5211 C.3     1  UNL1        0.1043
     14 C         141.1061  141.8997  171.2334 C.3     1  UNL1        0.1544
     15 O         140.7298  140.6987  172.0495 O.3     1  UNL1       -0.3805
     16 H         140.6219  139.9318  171.4654 H       1  UNL1        0.2105
     17 C         139.5988  137.7391  162.2468 C.3     1  UNL1        0.2525
     18 O         140.9092  137.1195  162.6330 O.3     1  UNL1       -0.4701
     19 N         143.3891  137.5916  161.0121 N.pl3   1  UNL1       -0.2802
     20 H         143.9004  136.7576  160.9017 H       1  UNL1        0.1552
     21 C         142.7478  138.2412  159.8218 C.ar    1  UNL1        0.2208
     22 N         142.8666  137.6082  158.4672 N.ar    1  UNL1       -0.2111
     23 C         142.2252  138.2578  157.2769 C.ar    1  UNL1        0.1147
     24 C         141.4651  139.5405  157.4414 C.ar    1  UNL1        0.0960
     25 CL        140.8238  140.1901  156.2511 Cl      1  UNL1       -0.0790
     26 C         141.3463  140.1735  158.7961 C.ar    1  UNL1        0.1138
     27 N         141.9876  139.5239  159.9863 N.ar    1  UNL1       -0.2111
     28 C         140.5862  141.4562  158.9605 C.ar    1  UNL1        0.1031
     29 C         139.2163  141.5993  159.5547 C.ar    1  UNL1        0.1196
     30 N         138.8460  143.0524  159.5210 N.ar    1  UNL1       -0.2248
     31 C         139.9870  143.8074  158.9061 C.ar    1  UNL1        0.1479
     32 C         140.1856  145.2658  158.6168 C.ar    1  UNL1        0.0374
     33 C         141.4596  145.7376  157.9812 C.ar    1  UNL1        0.0046
     34 C         142.5351  144.7510  157.6348 C.ar    1  UNL1        0.0191
     35 C         142.3366  143.2927  157.9241 C.ar    1  UNL1        0.0815
     36 N         141.0625  142.8209  158.5597 N.ar    1  UNL1       -0.2874
@<TRIPOS>BOND
     1    17    18    1
     2    18     1    1
     3     1     2   ar
     4     2     3   ar
     5     3     7    1
     6     7     8    1
     7     8     9    1
     8     9    10    1
     9    10    13    1
    10    13    14    1
    11    14    15    1
    12    10    11    1
    13    11    12    1
    14     3     4   ar
    15     4     5   ar
    16     5     6   ar
    17     6    19    1
    18    19    21    1
    19    21    22   ar
    20    22    23   ar
    21    23    24   ar
    22    24    25    1
    23    24    26   ar
    24    26    28    1
    25    28    29   ar
    26    29    30   ar
    27    30    31   ar
    28    31    32   ar
    29    32    33   ar
    30    33    34   ar
    31    34    35   ar
    32    35    36   ar
    33    26    27   ar
    34     6     1   ar
    35    27    21   ar
    36    12     7    1
    37    36    28   ar
    38    36    31   ar
    39    15    16    1
    40    19    20    1
@<TRIPOS>MOLECULE
*****
 36 40 0 0 0
SMALL
GASTEIGER

@<TRIPOS>ATOM
      1 C         137.9770  140.6958  163.1487 C.ar    1  UNL1        0.1533
      2 C         138.6918  140.7819  164.4647 C.ar    1  UNL1        0.0527
      3 C         139.4296  139.5892  164.9969 C.ar    1  UNL1        0.0510
      4 C         139.4526  138.3105  164.2132 C.ar    1  UNL1        0.0160
      5 C         138.7379  138.2244  162.8973 C.ar    1  UNL1        0.0190
      6 C         138.0001  139.4170  162.3650 C.ar    1  UNL1        0.0850
      7 N         140.1443  139.6754  166.3128 N.pl3   1  UNL1       -0.3046
      8 C         139.3702  139.9357  167.5710 C.3     1  UNL1        0.1081
      9 C         140.0849  140.0220  168.8871 C.3     1  UNL1        0.0939
     10 N         141.5736  139.8479  168.9448 N.3     1  UNL1       -0.2677
     11 C         142.3477  139.5876  167.6866 C.3     1  UNL1        0.0939
     12 C         141.6330  139.5014  166.3706 C.3     1  UNL1        0.1081
     13 C         142.2883  139.9341  170.2608 C.3     1  UNL1        0.1043
     14 C         141.8730  140.9592  171.2740 C.3     1  UNL1        0.1544
     15 O         140.7157  140.6845  172.1879 O.3     1  UNL1       -0.3805
     16 H         139.8988  140.6302  171.6677 H       1  UNL1        0.2105
     17 C         137.9854  142.9713  161.8949 C.3     1  UNL1        0.2525
     18 O         137.2393  141.8884  162.6164 O.3     1  UNL1       -0.4701
     19 N         137.2854  139.3308  161.0490 N.pl3   1  UNL1       -0.2802
     20 H         136.3362  139.0708  161.0205 H       1  UNL1        0.1552
     21 C         138.0167  139.6407  159.7766 C.ar    1  UNL1        0.2208
     22 N         137.5979  140.8109  158.9368 N.ar    1  UNL1       -0.2111
     23 C         138.3292  141.1208  157.6644 C.ar    1  UNL1        0.1147
     24 C         139.4793  140.2605  157.2317 C.ar    1  UNL1        0.0960
     25 CL        140.2106  140.5704  155.9592 Cl      1  UNL1       -0.0790
     26 C         139.8981  139.0902  158.0715 C.ar    1  UNL1        0.1138
     27 N         139.1668  138.7804  159.3439 N.ar    1  UNL1       -0.2111
     28 C         141.0482  138.2299  157.6389 C.ar    1  UNL1        0.1031
     29 C         142.3900  138.1516  158.3047 C.ar    1  UNL1        0.1196
     30 N         143.2294  137.1702  157.5417 N.ar    1  UNL1       -0.2248
     31 C         142.4064  136.6420  156.4043 C.ar    1  UNL1        0.1479
     32 C         142.7104  135.6493  155.3217 C.ar    1  UNL1        0.0374
     33 C         141.6663  135.3115  154.2991 C.ar    1  UNL1        0.0046
     34 C         140.3182  135.9665  154.3592 C.ar    1  UNL1        0.0191
     35 C         140.0142  136.9592  155.4418 C.ar    1  UNL1        0.0815
     36 N         141.0583  137.2970  156.4643 N.ar    1  UNL1       -0.2874
@<TRIPOS>BOND
     1    17    18    1
     2    18     1    1
     3     1     2   ar
     4     2     3   ar
     5     3     7    1
     6     7     8    1
     7     8     9    1
     8     9    10    1
     9    10    13    1
    10    13    14    1
    11    14    15    1
    12    10    11    1
    13    11    12    1
    14     3     4   ar
    15     4     5   ar
    16     5     6   ar
    17     6    19    1
    18    19    21    1
    19    21    22   ar
    20    22    23   ar
    21    23    24   ar
    22    24    25    1
    23    24    26   ar
    24    26    28    1
    25    28    29   ar
    26    29    30   ar
    27    30    31   ar
    28    31    32   ar
    29    32    33   ar
    30    33    34   ar
    31    34    35   ar
    32    35    36   ar
    33    26    27   ar
    34     6     1   ar
    35    27    21   ar
    36    12     7    1
    37    36    28   ar
    38    36    31   ar
    39    15    16    1
    40    19    20    1
@<TRIPOS>MOLECULE
*****
 36 40 0 0 0
SMALL
GASTEIGER

@<TRIPOS>ATOM
      1 C         141.8829  137.9930  163.1720 C.ar    1  UNL1        0.1533
      2 C         141.7350  138.6302  164.5219 C.ar    1  UNL1        0.0527
      3 C         142.8753  139.4033  165.1153 C.ar    1  UNL1        0.0510
      4 C         144.1634  139.5393  164.3588 C.ar    1  UNL1        0.0160
      5 C         144.3112  138.9021  163.0090 C.ar    1  UNL1        0.0190
      6 C         143.1710  138.1289  162.4155 C.ar    1  UNL1        0.0850
      7 N         142.7274  140.0405  166.4651 N.pl3   1  UNL1       -0.3046
      8 C         142.5920  141.5299  166.5806 C.3     1  UNL1        0.1081
      9 C         142.4440  142.1672  167.9305 C.3     1  UNL1        0.0939
     10 N         142.4315  141.3150  169.1647 N.3     1  UNL1       -0.2677
     11 C         142.5669  139.8256  169.0493 C.3     1  UNL1        0.0939
     12 C         142.7148  139.1883  167.6995 C.3     1  UNL1        0.1081
     13 C         142.2836  141.9522  170.5147 C.3     1  UNL1        0.1043
     14 C         140.9863  141.8390  171.2592 C.3     1  UNL1        0.1544
     15 O         140.6723  140.5934  172.0337 O.3     1  UNL1       -0.3805
     16 H         140.5733  139.8480  171.4209 H       1  UNL1        0.2105
     17 C         139.6890  137.9303  161.7817 C.3     1  UNL1        0.2525
     18 O         140.7426  137.2198  162.5787 O.3     1  UNL1       -0.4701
     19 N         143.3189  137.4917  161.0657 N.pl3   1  UNL1       -0.2802
     20 H         143.6047  136.5524  160.9934 H       1  UNL1        0.1552
     21 C         143.0315  138.2857  159.8259 C.ar    1  UNL1        0.2208
     22 N         142.8819  137.5881  158.5065 N.ar    1  UNL1       -0.2111
     23 C         142.5944  138.3820  157.2667 C.ar    1  UNL1        0.1147
     24 C         142.4565  139.8736  157.3464 C.ar    1  UNL1        0.0960
     25 CL        142.1690  140.6675  156.1067 Cl      1  UNL1       -0.0790
     26 C         142.6061  140.5712  158.6660 C.ar    1  UNL1        0.1138
     27 N         142.8936  139.7772  159.9056 N.ar    1  UNL1       -0.2111
     28 C         142.4682  142.0627  158.7457 C.ar    1  UNL1        0.1031
     29 C         143.2593  143.0646  157.9581 C.ar    1  UNL1        0.1196
     30 N         142.7950  144.4353  158.3527 N.ar    1  UNL1       -0.2248
     31 C         141.7169  144.2805  159.3841 C.ar    1  UNL1        0.1479
     32 C         140.8931  145.2853  160.1335 C.ar    1  UNL1        0.0374
     33 C         139.8673  144.8238  161.1258 C.ar    1  UNL1        0.0046
     34 C         139.6654  143.3574  161.3687 C.ar    1  UNL1        0.0191
     35 C         140.4892  142.3526  160.6193 C.ar    1  UNL1        0.0815
     36 N         141.5150  142.8141  159.6270 N.ar    1  UNL1       -0.2874
@<TRIPOS>BOND
     1    17    18    1
     2    18     1    1
     3     1     2   ar
     4     2     3   ar
     5     3     7    1
     6     7     8    1
     7     8     9    1
     8     9    10    1
     9    10    13    1
    10    13    14    1
    11    14    15    1
    12    10    11    1
    13    11    12    1
    14     3     4   ar
    15     4     5   ar
    16     5     6   ar
    17     6    19    1
    18    19    21    1
    19    21    22   ar
    20    22    23   ar
    21    23    24   ar
    22    24    25    1
    23    24    26   ar
    24    26    28    1
    25    28    29   ar
    26    29    30   ar
    27    30    31   ar
    28    31    32   ar
    29    32    33   ar
    30    33    34   ar
    31    34    35   ar
    32    35    36   ar
    33    26    27   ar
    34     6     1   ar
    35    27    21   ar
    36    12     7    1
    37    36    28   ar
    38    36    31   ar
    39    15    16    1
    40    19    20    1
@<TRIPOS>MOLECULE
*****
 36 40 0 0 0
SMALL
GASTEIGER

@<TRIPOS>ATOM
      1 C         142.1598  138.1611  163.0569 C.ar    1  UNL1        0.1533
      2 C         141.5926  138.6585  164.3534 C.ar    1  UNL1        0.0527
      3 C         142.4520  139.4515  165.2929 C.ar    1  UNL1        0.0510
      4 C         143.8786  139.7472  164.9358 C.ar    1  UNL1        0.0160
      5 C         144.4457  139.2498  163.6393 C.ar    1  UNL1        0.0190
      6 C         143.5863  138.4567  162.6998 C.ar    1  UNL1        0.0850
      7 N         141.8848  139.9489  166.5893 N.pl3   1  UNL1       -0.3046
      8 C         142.5999  139.6679  167.8776 C.3     1  UNL1        0.1081
      9 C         142.0327  140.1653  169.1742 C.3     1  UNL1        0.0939
     10 N         140.7505  140.9435  169.1824 N.3     1  UNL1       -0.2677
     11 C         140.0354  141.2244  167.8941 C.3     1  UNL1        0.0939
     12 C         140.6025  140.7271  166.5976 C.3     1  UNL1        0.1081
     13 C         140.1833  141.4409  170.4789 C.3     1  UNL1        0.1043
     14 C         139.9842  142.9118  170.6952 C.3     1  UNL1        0.1544
     15 O         138.8389  143.3986  171.5326 O.3     1  UNL1       -0.3805
     16 H         138.0020  143.1847  171.0915 H       1  UNL1        0.2105
     17 C         140.0675  137.9853  161.5267 C.3     1  UNL1        0.2525
     18 O         141.3004  137.3680  162.1175 O.3     1  UNL1       -0.4701
     19 N         144.1536  137.9594  161.4033 N.pl3   1  UNL1       -0.2802
     20 H         144.8510  137.2646  161.4055 H       1  UNL1        0.1552
     21 C         143.6582  138.5206  160.1035 C.ar    1  UNL1        0.2208
     22 N         143.8946  139.9641  159.7712 N.ar    1  UNL1       -0.2111
     23 C         143.3992  140.5253  158.4713 C.ar    1  UNL1        0.1147
     24 C         142.6673  139.6430  157.5038 C.ar    1  UNL1        0.0960
     25 CL        142.1719  140.2042  156.2040 Cl      1  UNL1       -0.0790
     26 C         142.4309  138.1995  157.8362 C.ar    1  UNL1        0.1138
     27 N         142.9263  137.6383  159.1360 N.ar    1  UNL1       -0.2111
     28 C         141.6991  137.3172  156.8687 C.ar    1  UNL1        0.1031
     29 C         140.3224  137.5577  156.3237 C.ar    1  UNL1        0.1196
     30 N         139.9880  136.4287  155.3945 N.ar    1  UNL1       -0.2248
     31 C         141.1580  135.4904  155.3652 C.ar    1  UNL1        0.1479
     32 C         141.3970  134.2069  154.6266 C.ar    1  UNL1        0.0374
     33 C         142.6935  133.4726  154.7991 C.ar    1  UNL1        0.0046
     34 C         143.7510  134.0218  155.7102 C.ar    1  UNL1        0.0191
     35 C         143.5120  135.3052  156.4488 C.ar    1  UNL1        0.0815
     36 N         142.2155  136.0395  156.2763 N.ar    1  UNL1       -0.2874
@<TRIPOS>BOND
     1    17    18    1
     2    18     1    1
     3     1     2   ar
     4     2     3   ar
     5     3     7    1
     6     7     8    1
     7     8     9    1
     8     9    10    1
     9    10    13    1
    10    13    14    1
    11    14    15    1
    12    10    11    1
    13    11    12    1
    14     3     4   ar
    15     4     5   ar
    16     5     6   ar
    17     6    19    1
    18    19    21    1
    19    21    22   ar
    20    22    23   ar
    21    23    24   ar
    22    24    25    1
    23    24    26   ar
    24    26    28    1
    25    28    29   ar
    26    29    30   ar
    27    30    31   ar
    28    31    32   ar
    29    32    33   ar
    30    33    34   ar
    31    34    35   ar
    32    35    36   ar
    33    26    27   ar
    34     6     1   ar
    35    27    21   ar
    36    12     7    1
    37    36    28   ar
    38    36    31   ar
    39    15    16    1
    40    19    20    1
@<TRIPOS>MOLECULE
*****
 36 40 0 0 0
SMALL
GASTEIGER

@<TRIPOS>ATOM
      1 C         137.8444  140.7329  163.1477 C.ar    1  UNL1        0.1533
      2 C         138.5055  140.8198  164.4914 C.ar    1  UNL1        0.0527
      3 C         139.2823  139.6514  165.0221 C.ar    1  UNL1        0.0510
      4 C         139.3980  138.3962  164.2091 C.ar    1  UNL1        0.0160
      5 C         138.7369  138.3093  162.8654 C.ar    1  UNL1        0.0190
      6 C         137.9601  139.4776  162.3347 C.ar    1  UNL1        0.0850
      7 N         139.9433  139.7384  166.3657 N.pl3   1  UNL1       -0.3046
      8 C         141.4356  139.6330  166.4755 C.3     1  UNL1        0.1081
      9 C         142.0968  139.7200  167.8192 C.3     1  UNL1        0.0939
     10 N         141.2656  139.9122  169.0529 N.3     1  UNL1       -0.2677
     11 C         139.7733  140.0176  168.9431 C.3     1  UNL1        0.0939
     12 C         139.1122  139.9306  167.5995 C.3     1  UNL1        0.1081
     13 C         141.9267  139.9992  170.3967 C.3     1  UNL1        0.1043
     14 C         142.6174  141.2643  170.8121 C.3     1  UNL1        0.1544
     15 O         142.0611  142.0885  171.9351 O.3     1  UNL1       -0.3805
     16 H         141.2004  142.4517  171.6740 H       1  UNL1        0.2105
     17 C         137.7577  143.2094  162.3671 C.3     1  UNL1        0.2525
     18 O         137.0676  141.9012  162.6171 O.3     1  UNL1       -0.4701
     19 N         137.2990  139.3907  160.9911 N.pl3   1  UNL1       -0.2802
     20 H         136.4798  138.8562  160.8792 H       1  UNL1        0.1552
     21 C         137.8860  140.1180  159.8179 C.ar    1  UNL1        0.2208
     22 N         137.1403  140.1688  158.5174 N.ar    1  UNL1       -0.2111
     23 C         137.7273  140.8962  157.3442 C.ar    1  UNL1        0.1147
     24 C         139.0600  141.5726  157.4715 C.ar    1  UNL1        0.0960
     25 CL        139.6470  142.3000  156.2983 Cl      1  UNL1       -0.0790
     26 C         139.8058  141.5218  158.7720 C.ar    1  UNL1        0.1138
     27 N         139.2187  140.7945  159.9452 N.ar    1  UNL1       -0.2111
     28 C         141.1385  142.1983  158.8993 C.ar    1  UNL1        0.1031
     29 C         141.4283  143.4312  159.7030 C.ar    1  UNL1        0.1196
     30 N         142.8843  143.7555  159.5456 N.ar    1  UNL1       -0.2248
     31 C         143.4944  142.7230  158.6447 C.ar    1  UNL1        0.1479
     32 C         144.8931  142.5349  158.1364 C.ar    1  UNL1        0.0374
     33 C         145.2127  141.3843  157.2287 C.ar    1  UNL1        0.0046
     34 C         144.1337  140.4219  156.8292 C.ar    1  UNL1        0.0191
     35 C         142.7351  140.6100  157.3375 C.ar    1  UNL1        0.0815
     36 N         142.4155  141.7606  158.2452 N.ar    1  UNL1       -0.2874
@<TRIPOS>BOND
     1    17    18    1
     2    18     1    1
     3     1     2   ar
     4     2     3   ar
     5     3     7    1
     6     7     8    1
     7     8     9    1
     8     9    10    1
     9    10    13    1
    10    13    14    1
    11    14    15    1
    12    10    11    1
    13    11    12    1
    14     3     4   ar
    15     4     5   ar
    16     5     6   ar
    17     6    19    1
    18    19    21    1
    19    21    22   ar
    20    22    23   ar
    21    23    24   ar
    22    24    25    1
    23    24    26   ar
    24    26    28    1
    25    28    29   ar
    26    29    30   ar
    27    30    31   ar
    28    31    32   ar
    29    32    33   ar
    30    33    34   ar
    31    34    35   ar
    32    35    36   ar
    33    26    27   ar
    34     6     1   ar
    35    27    21   ar
    36    12     7    1
    37    36    28   ar
    38    36    31   ar
    39    15    16    1
    40    19    20    1
@<TRIPOS>MOLECULE
*****
 36 40 0 0 0
SMALL
GASTEIGER

@<TRIPOS>ATOM
      1 C         142.1760  144.0251  162.6601 C.ar    1  UNL1        0.1533
      2 C         142.3820  143.1457  163.8578 C.ar    1  UNL1        0.0527
      3 C         141.3046  143.0261  164.8946 C.ar    1  UNL1        0.0510
      4 C         140.0213  143.7858  164.7338 C.ar    1  UNL1        0.0160
      5 C         139.8154  144.6652  163.5362 C.ar    1  UNL1        0.0190
      6 C         140.8927  144.7849  162.4993 C.ar    1  UNL1        0.0850
      7 N         141.5106  142.1466  166.0921 N.pl3   1  UNL1       -0.3046
      8 C         142.0773  140.7683  165.9217 C.3     1  UNL1        0.1081
      9 C         142.2833  139.8887  167.1193 C.3     1  UNL1        0.0939
     10 N         141.9227  140.3877  168.4871 N.3     1  UNL1       -0.2677
     11 C         141.3561  141.7660  168.6575 C.3     1  UNL1        0.0939
     12 C         141.1501  142.6455  167.4600 C.3     1  UNL1        0.1081
     13 C         142.1288  139.5082  169.6847 C.3     1  UNL1        0.1043
     14 C         142.8945  140.0205  170.8685 C.3     1  UNL1        0.1544
     15 O         142.1816  140.7665  171.9572 O.3     1  UNL1       -0.3805
     16 H         141.8441  141.6056  171.6067 H       1  UNL1        0.2105
     17 C         144.4424  143.2313  161.6683 C.3     1  UNL1        0.2525
     18 O         143.2534  144.1447  161.6233 O.3     1  UNL1       -0.4701
     19 N         140.6867  145.6643  161.3018 N.pl3   1  UNL1       -0.2802
     20 H         140.8485  146.6331  161.3689 H       1  UNL1        0.1552
     21 C         140.2342  145.0677  160.0021 C.ar    1  UNL1        0.2208
     22 N         139.4897  143.7656  159.9934 N.ar    1  UNL1       -0.2111
     23 C         139.0372  143.1690  158.6937 C.ar    1  UNL1        0.1147
     24 C         139.3292  143.8746  157.4026 C.ar    1  UNL1        0.0960
     25 CL        138.8767  143.2780  156.1029 Cl      1  UNL1       -0.0790
     26 C         140.0738  145.1768  157.4113 C.ar    1  UNL1        0.1138
     27 N         140.5262  145.7733  158.7110 N.ar    1  UNL1       -0.2111
     28 C         140.3658  145.8824  156.1202 C.ar    1  UNL1        0.1031
     29 C         141.2253  145.3626  155.0062 C.ar    1  UNL1        0.1196
     30 N         141.2402  146.3906  153.9140 N.ar    1  UNL1       -0.2248
     31 C         140.3899  147.5457  154.3529 C.ar    1  UNL1        0.1479
     32 C         140.0379  148.8430  153.6872 C.ar    1  UNL1        0.0374
     33 C         139.1455  149.8261  154.3850 C.ar    1  UNL1        0.0046
     34 C         138.6050  149.5120  155.7485 C.ar    1  UNL1        0.0191
     35 C         138.9570  148.2147  156.4142 C.ar    1  UNL1        0.0815
     36 N         139.8494  147.2316  155.7164 N.ar    1  UNL1       -0.2874
@<TRIPOS>BOND
     1    17    18    1
     2    18     1    1
     3     1     2   ar
     4     2     3   ar
     5     3     7    1
     6     7     8    1
     7     8     9    1
     8     9    10    1
     9    10    13    1
    10    13    14    1
    11    14    15    1
    12    10    11    1
    13    11    12    1
    14     3     4   ar
    15     4     5   ar
    16     5     6   ar
    17     6    19    1
    18    19    21    1
    19    21    22   ar
    20    22    23   ar
    21    23    24   ar
    22    24    25    1
    23    24    26   ar
    24    26    28    1
    25    28    29   ar
    26    29    30   ar
    27    30    31   ar
    28    31    32   ar
    29    32    33   ar
    30    33    34   ar
    31    34    35   ar
    32    35    36   ar
    33    26    27   ar
    34     6     1   ar
    35    27    21   ar
    36    12     7    1
    37    36    28   ar
    38    36    31   ar
    39    15    16    1
    40    19    20    1
@<TRIPOS>MOLECULE
*****
 36 40 0 0 0
SMALL
GASTEIGER

@<TRIPOS>ATOM
      1 C         143.5699  139.1572  163.1221 C.ar    1  UNL1        0.1533
      2 C         143.1686  139.5895  164.5014 C.ar    1  UNL1        0.0527
      3 C         142.0355  138.9013  165.2031 C.ar    1  UNL1        0.0510
      4 C         141.3036  137.7808  164.5256 C.ar    1  UNL1        0.0160
      5 C         141.7049  137.3486  163.1465 C.ar    1  UNL1        0.0190
      6 C         142.8381  138.0367  162.4447 C.ar    1  UNL1        0.0850
      7 N         141.6343  139.3336  166.5822 N.pl3   1  UNL1       -0.3046
      8 C         140.2226  139.7629  166.8526 C.3     1  UNL1        0.1081
      9 C         139.8213  140.1953  168.2318 C.3     1  UNL1        0.0939
     10 N         140.8316  140.1983  169.3405 N.3     1  UNL1       -0.2677
     11 C         142.2432  139.7691  169.0701 C.3     1  UNL1        0.0939
     12 C         142.6446  139.3368  167.6909 C.3     1  UNL1        0.1081
     13 C         140.4304  140.6307  170.7197 C.3     1  UNL1        0.1043
     14 C         140.8010  141.9973  171.2147 C.3     1  UNL1        0.1544
     15 O         142.0697  142.1956  171.9900 O.3     1  UNL1       -0.3805
     16 H         142.0074  141.7275  172.8372 H       1  UNL1        0.2105
     17 C         145.1866  141.1795  162.9064 C.3     1  UNL1        0.2525
     18 O         144.7031  139.8454  162.4204 O.3     1  UNL1       -0.4701
     19 N         143.2393  137.6044  161.0656 N.pl3   1  UNL1       -0.2802
     20 H         143.8856  136.8711  160.9481 H       1  UNL1        0.1552
     21 C         142.6559  138.2893  159.8654 C.ar    1  UNL1        0.2208
     22 N         142.8211  137.6845  158.5027 N.ar    1  UNL1       -0.2111
     23 C         142.2376  138.3694  157.3024 C.ar    1  UNL1        0.1147
     24 C         141.4890  139.6590  157.4649 C.ar    1  UNL1        0.0960
     25 CL        140.9055  140.3439  156.2647 Cl      1  UNL1       -0.0790
     26 C         141.3238  140.2638  158.8277 C.ar    1  UNL1        0.1138
     27 N         141.9072  139.5789  160.0278 N.ar    1  UNL1       -0.2111
     28 C         140.5751  141.5534  158.9902 C.ar    1  UNL1        0.1031
     29 C         139.2240  141.7151  159.6213 C.ar    1  UNL1        0.1196
     30 N         138.8601  143.1694  159.5712 N.ar    1  UNL1       -0.2248
     31 C         139.9863  143.9066  158.9092 C.ar    1  UNL1        0.1479
     32 C         140.1835  145.3582  158.5870 C.ar    1  UNL1        0.0374
     33 C         141.4408  145.8111  157.9057 C.ar    1  UNL1        0.0046
     34 C         142.5008  144.8123  157.5467 C.ar    1  UNL1        0.0191
     35 C         142.3035  143.3607  157.8689 C.ar    1  UNL1        0.0815
     36 N         141.0463  142.9078  158.5501 N.ar    1  UNL1       -0.2874
@<TRIPOS>BOND
     1    17    18    1
     2    18     1    1
     3     1     2   ar
     4     2     3   ar
     5     3     7    1
     6     7     8    1
     7     8     9    1
     8     9    10    1
     9    10    13    1
    10    13    14    1
    11    14    15    1
    12    10    11    1
    13    11    12    1
    14     3     4   ar
    15     4     5   ar
    16     5     6   ar
    17     6    19    1
    18    19    21    1
    19    21    22   ar
    20    22    23   ar
    21    23    24   ar
    22    24    25    1
    23    24    26   ar
    24    26    28    1
    25    28    29   ar
    26    29    30   ar
    27    30    31   ar
    28    31    32   ar
    29    32    33   ar
    30    33    34   ar
    31    34    35   ar
    32    35    36   ar
    33    26    27   ar
    34     6     1   ar
    35    27    21   ar
    36    12     7    1
    37    36    28   ar
    38    36    31   ar
    39    15    16    1
    40    19    20    1
