@<TRIPOS>MOLECULE
*****
 29 31 0 0 0
SMALL
GASTEIGER

@<TRIPOS>ATOM
      1 C         142.9281  142.1866  169.9568 C.ar    1  UNL1       -0.0001
      2 C         142.1369  141.8237  171.1784 C.ar    1  UNL1       -0.0003
      3 C         140.8699  141.0322  171.0436 C.ar    1  UNL1       -0.0029
      4 C         140.3941  140.6035  169.6873 C.ar    1  UNL1       -0.0047
      5 C         141.1853  140.9664  168.4657 C.ar    1  UNL1       -0.0047
      6 C         142.4523  141.7579  168.6005 C.ar    1  UNL1       -0.0029
      7 C         140.4728  140.4085  167.2693 C.3     1  UNL1        0.1205
      8 N         139.2413  139.7008  167.7515 N.am    1  UNL1       -0.2679
      9 C         138.2351  138.9963  166.8906 C.2     1  UNL1        0.2495
     10 O         137.0468  138.3298  167.5181 O.2     1  UNL1       -0.2699
     11 C         139.1927  139.8214  169.2459 C.3     1  UNL1        0.1205
     12 C         138.4171  138.9583  165.4022 C.ar    1  UNL1        0.0535
     13 C         138.9247  137.7116  164.7403 C.ar    1  UNL1        0.0045
     14 C         139.1068  137.6736  163.2518 C.ar    1  UNL1        0.0001
     15 C         138.7813  138.8823  162.4253 C.ar    1  UNL1        0.0039
     16 C         138.2738  140.1290  163.0873 C.ar    1  UNL1        0.0716
     17 C         138.0917  140.1670  164.5757 C.ar    1  UNL1        0.0084
     18 C         137.9483  141.3376  162.2608 C.3     1  UNL1        0.4186
     19 F         137.6228  142.5464  161.4342 F       1  UNL1       -0.1659
     20 F         139.0306  140.9660  161.2911 F       1  UNL1       -0.1659
     21 F         136.8659  141.7093  163.2305 F       1  UNL1       -0.1659
     22 C         144.2848  144.0840  171.1010 C.2     1  UNL1        0.0598
     23 C         144.1951  142.9782  170.0916 C.2     1  UNL1        0.0047
     24 O         146.8456  144.3123  170.7274 O.2     1  UNL1       -0.2681
     25 C         145.5518  144.8756  171.2358 C.2     1  UNL1        0.2679
     26 N         145.5248  146.2304  171.8791 N.am    1  UNL1       -0.1934
     27 O         146.7918  147.0220  172.0139 O.3     1  UNL1       -0.2949
     28 H         144.6756  146.6001  172.2128 H       1  UNL1        0.1825
     29 H         147.5298  146.5174  171.6375 H       1  UNL1        0.2414
@<TRIPOS>BOND
     1    24    25    2
     2    25    22    1
     3    22    23    2
     4    23     1    1
     5     1     2   ar
     6     2     3   ar
     7     3     4   ar
     8     4     5   ar
     9     5     6   ar
    10     5     7    1
    11     7     8    1
    12     8     9   am
    13     9    10    2
    14     9    12    1
    15    12    13   ar
    16    13    14   ar
    17    14    15   ar
    18    15    16   ar
    19    16    18    1
    20    18    19    1
    21    18    20    1
    22    18    21    1
    23    16    17   ar
    24     8    11    1
    25    25    26   am
    26    26    27    1
    27     6     1   ar
    28    17    12   ar
    29    11     4    1
    30    26    28    1
    31    27    29    1
@<TRIPOS>MOLECULE
*****
 29 31 0 0 0
SMALL
GASTEIGER

@<TRIPOS>ATOM
      1 C         139.0658  140.3616  169.7145 C.ar    1  UNL1       -0.0001
      2 C         139.5267  141.7132  170.1734 C.ar    1  UNL1       -0.0003
      3 C         140.2192  142.6351  169.2139 C.ar    1  UNL1       -0.0029
      4 C         140.4508  142.2054  167.7956 C.ar    1  UNL1       -0.0047
      5 C         139.9898  140.8538  167.3367 C.ar    1  UNL1       -0.0047
      6 C         139.2973  139.9319  168.2962 C.ar    1  UNL1       -0.0029
      7 C         140.3547  140.7064  165.8892 C.3     1  UNL1        0.1205
      8 N         141.0412  141.9669  165.4536 N.am    1  UNL1       -0.2679
      9 C         141.5747  142.2511  164.0807 C.2     1  UNL1        0.2495
     10 O         142.2407  143.5637  163.7917 O.2     1  UNL1       -0.2699
     11 C         141.1006  142.8933  166.6318 C.3     1  UNL1        0.1205
     12 C         141.4423  141.2226  162.9969 C.ar    1  UNL1        0.0535
     13 C         140.2394  141.2282  162.1006 C.ar    1  UNL1        0.0045
     14 C         140.1070  140.1997  161.0168 C.ar    1  UNL1        0.0001
     15 C         141.1773  139.1657  160.8292 C.ar    1  UNL1        0.0039
     16 C         142.3801  139.1601  161.7254 C.ar    1  UNL1        0.0716
     17 C         142.5126  140.1886  162.8093 C.ar    1  UNL1        0.0084
     18 C         143.4504  138.1261  161.5378 C.3     1  UNL1        0.4186
     19 F         144.5207  137.0920  161.3502 F       1  UNL1       -0.1659
     20 F         144.3884  138.9453  162.3739 F       1  UNL1       -0.1659
     21 F         142.5123  137.3069  160.7017 F       1  UNL1       -0.1659
     22 C         136.9076  139.1602  170.5201 C.2     1  UNL1        0.0598
     23 C         138.3733  139.4397  170.6739 C.2     1  UNL1        0.0047
     24 O         136.5953  136.7883  171.5332 O.2     1  UNL1       -0.2681
     25 C         136.2151  138.2383  171.4795 C.2     1  UNL1        0.2679
     26 N         135.1424  138.7665  172.3853 N.am    1  UNL1       -0.1934
     27 O         134.4499  137.8446  173.3448 O.3     1  UNL1       -0.2949
     28 H         134.8929  139.7182  172.3501 H       1  UNL1        0.1825
     29 H         134.8121  136.9495  173.2516 H       1  UNL1        0.2414
@<TRIPOS>BOND
     1    24    25    2
     2    25    22    1
     3    22    23    2
     4    23     1    1
     5     1     2   ar
     6     2     3   ar
     7     3     4   ar
     8     4     5   ar
     9     5     6   ar
    10     5     7    1
    11     7     8    1
    12     8     9   am
    13     9    10    2
    14     9    12    1
    15    12    13   ar
    16    13    14   ar
    17    14    15   ar
    18    15    16   ar
    19    16    18    1
    20    18    19    1
    21    18    20    1
    22    18    21    1
    23    16    17   ar
    24     8    11    1
    25    25    26   am
    26    26    27    1
    27     6     1   ar
    28    17    12   ar
    29    11     4    1
    30    26    28    1
    31    27    29    1
@<TRIPOS>MOLECULE
*****
 29 31 0 0 0
SMALL
GASTEIGER

@<TRIPOS>ATOM
      1 C         139.2863  140.5392  169.6891 C.ar    1  UNL1       -0.0001
      2 C         139.6349  141.9726  169.9603 C.ar    1  UNL1       -0.0003
      3 C         140.4301  142.7540  168.9567 C.ar    1  UNL1       -0.0029
      4 C         140.8766  142.1018  167.6818 C.ar    1  UNL1       -0.0047
      5 C         140.5279  140.6684  167.4106 C.ar    1  UNL1       -0.0047
      6 C         139.7328  139.8871  168.4143 C.ar    1  UNL1       -0.0029
      7 C         141.1020  140.2963  166.0756 C.3     1  UNL1        0.1205
      8 N         141.8054  141.4998  165.5218 N.am    1  UNL1       -0.2679
      9 C         142.5223  141.5744  164.2063 C.2     1  UNL1        0.2495
     10 O         143.1826  142.8531  163.7835 O.2     1  UNL1       -0.2699
     11 C         141.6661  142.6157  166.5145 C.3     1  UNL1        0.1205
     12 C         142.5787  140.3703  163.3136 C.ar    1  UNL1        0.0535
     13 C         143.8497  139.5821  163.1969 C.ar    1  UNL1        0.0045
     14 C         143.9062  138.3780  162.3043 C.ar    1  UNL1        0.0001
     15 C         142.6917  137.9620  161.5283 C.ar    1  UNL1        0.0039
     16 C         141.4209  138.7501  161.6450 C.ar    1  UNL1        0.0716
     17 C         141.3644  139.9542  162.5377 C.ar    1  UNL1        0.0084
     18 C         140.2065  138.3341  160.8691 C.3     1  UNL1        0.4186
     19 F         138.9920  137.9180  160.0932 F       1  UNL1       -0.1659
     20 F         140.7756  138.9718  159.6365 F       1  UNL1       -0.1659
     21 F         139.6374  137.6963  162.1018 F       1  UNL1       -0.1659
     22 C         137.1630  139.1762  170.3086 C.2     1  UNL1        0.0598
     23 C         138.4912  139.7579  170.6928 C.2     1  UNL1        0.0047
     24 O         136.5230  136.9054  171.3965 O.2     1  UNL1       -0.2681
     25 C         136.3679  138.3949  171.3123 C.2     1  UNL1        0.2679
     26 N         135.4175  139.1032  172.2317 N.am    1  UNL1       -0.1934
     27 O         134.6224  138.3219  173.2353 O.3     1  UNL1       -0.2949
     28 H         135.3157  140.0808  172.1764 H       1  UNL1        0.1825
     29 H         134.8401  137.3798  173.1577 H       1  UNL1        0.2414
@<TRIPOS>BOND
     1    24    25    2
     2    25    22    1
     3    22    23    2
     4    23     1    1
     5     1     2   ar
     6     2     3   ar
     7     3     4   ar
     8     4     5   ar
     9     5     6   ar
    10     5     7    1
    11     7     8    1
    12     8     9   am
    13     9    10    2
    14     9    12    1
    15    12    13   ar
    16    13    14   ar
    17    14    15   ar
    18    15    16   ar
    19    16    18    1
    20    18    19    1
    21    18    20    1
    22    18    21    1
    23    16    17   ar
    24     8    11    1
    25    25    26   am
    26    26    27    1
    27     6     1   ar
    28    17    12   ar
    29    11     4    1
    30    26    28    1
    31    27    29    1
@<TRIPOS>MOLECULE
*****
 29 31 0 0 0
SMALL
GASTEIGER

@<TRIPOS>ATOM
      1 C         142.2986  143.5766  159.2412 C.ar    1  UNL1       -0.0001
      2 C         141.5909  144.8799  159.0166 C.ar    1  UNL1       -0.0003
      3 C         140.7016  145.4442  160.0847 C.ar    1  UNL1       -0.0029
      4 C         140.5201  144.7052  161.3773 C.ar    1  UNL1       -0.0047
      5 C         141.2279  143.4019  161.6019 C.ar    1  UNL1       -0.0047
      6 C         142.1171  142.8376  160.5338 C.ar    1  UNL1       -0.0029
      7 C         140.8586  142.9032  162.9675 C.3     1  UNL1        0.1205
      8 N         139.9227  143.8983  163.5870 N.am    1  UNL1       -0.2679
      9 C         139.3044  143.7975  164.9500 C.2     1  UNL1        0.2495
     10 O         138.3824  144.8758  165.4369 O.2     1  UNL1       -0.2699
     11 C         139.7135  145.0120  162.6041 C.3     1  UNL1        0.1205
     12 C         139.6083  142.6184  165.8259 C.ar    1  UNL1        0.0535
     13 C         140.4571  142.7926  167.0504 C.ar    1  UNL1        0.0045
     14 C         140.7609  141.6135  167.9264 C.ar    1  UNL1        0.0001
     15 C         140.2159  140.2601  167.5779 C.ar    1  UNL1        0.0039
     16 C         139.3671  140.0859  166.3535 C.ar    1  UNL1        0.0716
     17 C         139.0633  141.2650  165.4775 C.ar    1  UNL1        0.0084
     18 C         138.8222  138.7325  166.0050 C.3     1  UNL1        0.4186
     19 F         138.2773  137.3791  165.6566 F       1  UNL1       -0.1659
     20 F         137.5099  139.0996  166.6318 F       1  UNL1       -0.1659
     21 F         140.1347  138.3655  165.3782 F       1  UNL1       -0.1659
     22 C         144.4165  142.2393  158.5511 C.2     1  UNL1        0.0598
     23 C         143.1879  143.0123  158.1731 C.2     1  UNL1        0.0047
     24 O         146.3542  142.5384  156.8465 O.2     1  UNL1       -0.2681
     25 C         145.3058  141.6750  157.4831 C.2     1  UNL1        0.2679
     26 N         145.1466  140.2472  157.0516 N.am    1  UNL1       -0.1934
     27 O         146.0358  139.6829  155.9836 O.3     1  UNL1       -0.2949
     28 H         144.4585  139.6805  157.4695 H       1  UNL1        0.1825
     29 H         146.6526  140.3677  155.6811 H       1  UNL1        0.2414
@<TRIPOS>BOND
     1    24    25    2
     2    25    22    1
     3    22    23    2
     4    23     1    1
     5     1     2   ar
     6     2     3   ar
     7     3     4   ar
     8     4     5   ar
     9     5     6   ar
    10     5     7    1
    11     7     8    1
    12     8     9   am
    13     9    10    2
    14     9    12    1
    15    12    13   ar
    16    13    14   ar
    17    14    15   ar
    18    15    16   ar
    19    16    18    1
    20    18    19    1
    21    18    20    1
    22    18    21    1
    23    16    17   ar
    24     8    11    1
    25    25    26   am
    26    26    27    1
    27     6     1   ar
    28    17    12   ar
    29    11     4    1
    30    26    28    1
    31    27    29    1
@<TRIPOS>MOLECULE
*****
 29 31 0 0 0
SMALL
GASTEIGER

@<TRIPOS>ATOM
      1 C         139.8401  140.3428  167.9538 C.ar    1  UNL1       -0.0001
      2 C         138.5703  139.5445  167.9343 C.ar    1  UNL1       -0.0003
      3 C         138.1136  138.8927  166.6629 C.ar    1  UNL1       -0.0029
      4 C         138.9267  139.0392  165.4109 C.ar    1  UNL1       -0.0047
      5 C         140.1965  139.8374  165.4304 C.ar    1  UNL1       -0.0047
      6 C         140.6532  140.4893  166.7019 C.ar    1  UNL1       -0.0029
      7 C         140.7846  139.8067  164.0508 C.3     1  UNL1        0.1205
      8 N         139.8783  138.9894  163.1787 N.am    1  UNL1       -0.2679
      9 C         140.0840  138.6976  161.7218 C.2     1  UNL1        0.2495
     10 O         139.0873  137.8604  160.9765 O.2     1  UNL1       -0.2699
     11 C         138.7300  138.5150  164.0193 C.3     1  UNL1        0.1205
     12 C         141.2866  139.2430  161.0102 C.ar    1  UNL1        0.0535
     13 C         142.5033  138.3849  160.8277 C.ar    1  UNL1        0.0045
     14 C         143.7059  138.9303  160.1161 C.ar    1  UNL1        0.0001
     15 C         143.6917  140.3339  159.5870 C.ar    1  UNL1        0.0039
     16 C         142.4750  141.1920  159.7695 C.ar    1  UNL1        0.0716
     17 C         141.2725  140.6465  160.4811 C.ar    1  UNL1        0.0084
     18 C         142.4609  142.5954  159.2404 C.3     1  UNL1        0.4186
     19 F         142.4467  143.9990  158.7113 F       1  UNL1       -0.1659
     20 F         143.9566  142.6479  159.3396 F       1  UNL1       -0.1659
     21 F         140.9650  142.5429  159.1413 F       1  UNL1       -0.1659
     22 C         141.5406  141.8329  169.2335 C.2     1  UNL1        0.0598
     23 C         140.2968  140.9946  169.2252 C.2     1  UNL1        0.0047
     24 O         141.3422  142.1301  171.8069 O.2     1  UNL1       -0.2681
     25 C         141.9973  142.4847  170.5050 C.2     1  UNL1        0.2679
     26 N         143.1092  143.4912  170.4745 N.am    1  UNL1       -0.1934
     27 O         143.5659  144.1430  171.7459 O.3     1  UNL1       -0.2949
     28 H         143.5392  143.7239  169.6200 H       1  UNL1        0.1825
     29 H         143.0424  143.8044  172.4890 H       1  UNL1        0.2414
@<TRIPOS>BOND
     1    24    25    2
     2    25    22    1
     3    22    23    2
     4    23     1    1
     5     1     2   ar
     6     2     3   ar
     7     3     4   ar
     8     4     5   ar
     9     5     6   ar
    10     5     7    1
    11     7     8    1
    12     8     9   am
    13     9    10    2
    14     9    12    1
    15    12    13   ar
    16    13    14   ar
    17    14    15   ar
    18    15    16   ar
    19    16    18    1
    20    18    19    1
    21    18    20    1
    22    18    21    1
    23    16    17   ar
    24     8    11    1
    25    25    26   am
    26    26    27    1
    27     6     1   ar
    28    17    12   ar
    29    11     4    1
    30    26    28    1
    31    27    29    1
@<TRIPOS>MOLECULE
*****
 29 31 0 0 0
SMALL
GASTEIGER

@<TRIPOS>ATOM
      1 C         139.3971  140.1712  167.3018 C.ar    1  UNL1       -0.0001
      2 C         138.5220  138.9766  167.0627 C.ar    1  UNL1       -0.0003
      3 C         138.1343  138.5988  165.6638 C.ar    1  UNL1       -0.0029
      4 C         138.6218  139.4155  164.5040 C.ar    1  UNL1       -0.0047
      5 C         139.4969  140.6101  164.7430 C.ar    1  UNL1       -0.0047
      6 C         139.8845  140.9879  166.1419 C.ar    1  UNL1       -0.0029
      7 C         139.8221  141.2203  163.4118 C.3     1  UNL1        0.1205
      8 N         139.1480  140.4028  162.3501 N.am    1  UNL1       -0.2679
      9 C         139.2056  140.6562  160.8727 C.2     1  UNL1        0.2495
     10 O         138.4765  139.7484  159.9271 O.2     1  UNL1       -0.2699
     11 C         138.4061  139.2874  163.0251 C.3     1  UNL1        0.1205
     12 C         139.9923  141.8174  160.3411 C.ar    1  UNL1        0.0535
     13 C         139.2926  143.0932  159.9764 C.ar    1  UNL1        0.0045
     14 C         140.0793  144.2545  159.4447 C.ar    1  UNL1        0.0001
     15 C         141.5656  144.1399  159.2778 C.ar    1  UNL1        0.0039
     16 C         142.2652  142.8642  159.6425 C.ar    1  UNL1        0.0716
     17 C         141.4785  141.7030  160.1742 C.ar    1  UNL1        0.0084
     18 C         143.7514  142.7497  159.4756 C.3     1  UNL1        0.4186
     19 F         145.2378  142.6353  159.3086 F       1  UNL1       -0.1659
     20 F         143.8208  141.8757  160.6926 F       1  UNL1       -0.1659
     21 F         143.6820  143.6239  158.2585 F       1  UNL1       -0.1659
     22 C         140.1083  141.9762  169.0298 C.2     1  UNL1        0.0598
     23 C         139.7848  140.5490  168.7007 C.2     1  UNL1        0.0047
     24 O         139.5148  143.0651  171.3127 O.2     1  UNL1       -0.2681
     25 C         140.4960  142.3541  170.4287 C.2     1  UNL1        0.2679
     26 N         141.8649  142.0208  170.9435 N.am    1  UNL1       -0.1934
     27 O         142.2526  142.3986  172.3424 O.3     1  UNL1       -0.2949
     28 H         142.5089  141.5541  170.3633 H       1  UNL1        0.1825
     29 H         141.5089  142.8477  172.7739 H       1  UNL1        0.2414
@<TRIPOS>BOND
     1    24    25    2
     2    25    22    1
     3    22    23    2
     4    23     1    1
     5     1     2   ar
     6     2     3   ar
     7     3     4   ar
     8     4     5   ar
     9     5     6   ar
    10     5     7    1
    11     7     8    1
    12     8     9   am
    13     9    10    2
    14     9    12    1
    15    12    13   ar
    16    13    14   ar
    17    14    15   ar
    18    15    16   ar
    19    16    18    1
    20    18    19    1
    21    18    20    1
    22    18    21    1
    23    16    17   ar
    24     8    11    1
    25    25    26   am
    26    26    27    1
    27     6     1   ar
    28    17    12   ar
    29    11     4    1
    30    26    28    1
    31    27    29    1
@<TRIPOS>MOLECULE
*****
 29 31 0 0 0
SMALL
GASTEIGER

@<TRIPOS>ATOM
      1 C         143.4644  142.5410  169.9507 C.ar    1  UNL1       -0.0001
      2 C         142.3733  142.5799  170.9793 C.ar    1  UNL1       -0.0003
      3 C         141.0645  141.8982  170.7106 C.ar    1  UNL1       -0.0029
      4 C         140.8466  141.1776  169.4132 C.ar    1  UNL1       -0.0047
      5 C         141.9377  141.1387  168.3846 C.ar    1  UNL1       -0.0047
      6 C         143.2465  141.8203  168.6533 C.ar    1  UNL1       -0.0029
      7 C         141.4365  140.3566  167.2067 C.3     1  UNL1        0.1205
      8 N         140.0358  139.9123  167.5074 N.am    1  UNL1       -0.2679
      9 C         139.1543  139.1027  166.6031 C.2     1  UNL1        0.2495
     10 O         137.7688  138.7316  167.0419 O.2     1  UNL1       -0.2699
     11 C         139.6712  140.4197  168.8711 C.3     1  UNL1        0.1205
     12 C         139.6585  138.6641  165.2602 C.ar    1  UNL1        0.0535
     13 C         138.7088  138.0798  164.2568 C.ar    1  UNL1        0.0045
     14 C         139.2129  137.6412  162.9138 C.ar    1  UNL1        0.0001
     15 C         140.6668  137.7870  162.5743 C.ar    1  UNL1        0.0039
     16 C         141.6163  138.3713  163.5777 C.ar    1  UNL1        0.0716
     17 C         141.1122  138.8099  164.9206 C.ar    1  UNL1        0.0084
     18 C         143.0701  138.5171  163.2381 C.3     1  UNL1        0.4186
     19 F         144.5239  138.6629  162.8985 F       1  UNL1       -0.1659
     20 F         143.2555  139.4215  164.4203 F       1  UNL1       -0.1659
     21 F         142.8846  137.6126  162.0559 F       1  UNL1       -0.1659
     22 C         144.8309  144.3931  171.1557 C.2     1  UNL1        0.0598
     23 C         144.7732  143.2226  170.2195 C.2     1  UNL1        0.0047
     24 O         147.4224  144.4387  170.9770 O.2     1  UNL1       -0.2681
     25 C         146.1398  145.0748  171.4245 C.2     1  UNL1        0.2679
     26 N         146.1659  146.3925  172.1407 N.am    1  UNL1       -0.1934
     27 O         147.4748  147.0742  172.4094 O.3     1  UNL1       -0.2949
     28 H         145.3241  146.8100  172.4344 H       1  UNL1        0.1825
     29 H         148.1992  146.5334  172.0578 H       1  UNL1        0.2414
@<TRIPOS>BOND
     1    24    25    2
     2    25    22    1
     3    22    23    2
     4    23     1    1
     5     1     2   ar
     6     2     3   ar
     7     3     4   ar
     8     4     5   ar
     9     5     6   ar
    10     5     7    1
    11     7     8    1
    12     8     9   am
    13     9    10    2
    14     9    12    1
    15    12    13   ar
    16    13    14   ar
    17    14    15   ar
    18    15    16   ar
    19    16    18    1
    20    18    19    1
    21    18    20    1
    22    18    21    1
    23    16    17   ar
    24     8    11    1
    25    25    26   am
    26    26    27    1
    27     6     1   ar
    28    17    12   ar
    29    11     4    1
    30    26    28    1
    31    27    29    1
@<TRIPOS>MOLECULE
*****
 29 31 0 0 0
SMALL
GASTEIGER

@<TRIPOS>ATOM
      1 C         143.3151  142.1798  169.6744 C.ar    1  UNL1       -0.0001
      2 C         142.7332  141.3593  170.7870 C.ar    1  UNL1       -0.0003
      3 C         141.5047  140.5330  170.5462 C.ar    1  UNL1       -0.0029
      4 C         140.8582  140.5272  169.1927 C.ar    1  UNL1       -0.0047
      5 C         141.4401  141.3477  168.0801 C.ar    1  UNL1       -0.0047
      6 C         142.6686  142.1740  168.3209 C.ar    1  UNL1       -0.0029
      7 C         140.5904  141.1443  166.8607 C.3     1  UNL1        0.1205
      8 N         139.4833  140.1981  167.2199 N.am    1  UNL1       -0.2679
      9 C         138.4007  139.7177  166.2994 C.2     1  UNL1        0.2495
     10 O         137.3555  138.7668  166.8027 O.2     1  UNL1       -0.2699
     11 C         139.6488  139.8167  168.6611 C.3     1  UNL1        0.1205
     12 C         138.3634  140.1880  164.8755 C.ar    1  UNL1        0.0535
     13 C         138.0319  141.6180  164.5665 C.ar    1  UNL1        0.0045
     14 C         137.9946  142.0884  163.1426 C.ar    1  UNL1        0.0001
     15 C         138.2889  141.1288  162.0278 C.ar    1  UNL1        0.0039
     16 C         138.6204  139.6990  162.3369 C.ar    1  UNL1        0.0716
     17 C         138.6577  139.2286  163.7607 C.ar    1  UNL1        0.0084
     18 C         138.9146  138.7395  161.2221 C.3     1  UNL1        0.4186
     19 F         139.2089  137.7800  160.1073 F       1  UNL1       -0.1659
     20 F         138.4853  139.7708  160.2211 F       1  UNL1       -0.1659
     21 F         139.3441  137.7082  162.2231 F       1  UNL1       -0.1659
     22 C         144.5592  144.0232  171.0176 C.2     1  UNL1        0.0598
     23 C         144.5436  143.0062  169.9152 C.2     1  UNL1        0.0047
     24 O         147.1438  144.2813  170.9619 O.2     1  UNL1       -0.2681
     25 C         145.7877  144.8496  171.2584 C.2     1  UNL1        0.2679
     26 N         145.6599  146.2442  171.7958 N.am    1  UNL1       -0.1934
     27 O         146.8884  147.0706  172.0366 O.3     1  UNL1       -0.2949
     28 H         144.7699  146.6172  171.9904 H       1  UNL1        0.1825
     29 H         147.6755  146.5577  171.7950 H       1  UNL1        0.2414
@<TRIPOS>BOND
     1    24    25    2
     2    25    22    1
     3    22    23    2
     4    23     1    1
     5     1     2   ar
     6     2     3   ar
     7     3     4   ar
     8     4     5   ar
     9     5     6   ar
    10     5     7    1
    11     7     8    1
    12     8     9   am
    13     9    10    2
    14     9    12    1
    15    12    13   ar
    16    13    14   ar
    17    14    15   ar
    18    15    16   ar
    19    16    18    1
    20    18    19    1
    21    18    20    1
    22    18    21    1
    23    16    17   ar
    24     8    11    1
    25    25    26   am
    26    26    27    1
    27     6     1   ar
    28    17    12   ar
    29    11     4    1
    30    26    28    1
    31    27    29    1
@<TRIPOS>MOLECULE
*****
 29 31 0 0 0
SMALL
GASTEIGER

@<TRIPOS>ATOM
      1 C         142.4559  143.6993  159.2724 C.ar    1  UNL1       -0.0001
      2 C         141.6513  144.9444  159.0438 C.ar    1  UNL1       -0.0003
      3 C         140.7265  145.4465  160.1126 C.ar    1  UNL1       -0.0029
      4 C         140.6062  144.7036  161.4101 C.ar    1  UNL1       -0.0047
      5 C         141.4107  143.4585  161.6388 C.ar    1  UNL1       -0.0047
      6 C         142.3356  142.9563  160.5699 C.ar    1  UNL1       -0.0029
      7 C         141.0855  142.9415  163.0088 C.3     1  UNL1        0.1205
      8 N         140.0799  143.8671  163.6269 N.am    1  UNL1       -0.2679
      9 C         139.4764  143.7281  164.9931 C.2     1  UNL1        0.2495
     10 O         138.4779  144.7369  165.4782 O.2     1  UNL1       -0.2699
     11 C         139.7836  144.9561  162.6388 C.3     1  UNL1        0.1205
     12 C         139.8715  142.5803  165.8743 C.ar    1  UNL1        0.0535
     13 C         139.1674  141.2616  165.7490 C.ar    1  UNL1        0.0045
     14 C         139.5625  140.1138  166.6301 C.ar    1  UNL1        0.0001
     15 C         140.6617  140.2846  167.6366 C.ar    1  UNL1        0.0039
     16 C         141.3656  141.6032  167.7618 C.ar    1  UNL1        0.0716
     17 C         140.9706  142.7510  166.8807 C.ar    1  UNL1        0.0084
     18 C         142.4647  141.7739  168.7682 C.3     1  UNL1        0.4186
     19 F         143.5639  141.9446  169.7746 F       1  UNL1       -0.1659
     20 F         141.8636  143.0774  169.2035 F       1  UNL1       -0.1659
     21 F         143.0658  140.4704  168.3328 F       1  UNL1       -0.1659
     22 C         144.2058  141.9674  158.4427 C.2     1  UNL1        0.0598
     23 C         143.3808  143.1971  158.2036 C.2     1  UNL1        0.0047
     24 O         146.0934  142.4062  156.7123 O.2     1  UNL1       -0.2681
     25 C         145.1307  141.4652  157.3738 C.2     1  UNL1        0.2679
     26 N         145.0928  140.0220  156.9666 N.am    1  UNL1       -0.1934
     27 O         146.0177  139.5199  155.8977 O.3     1  UNL1       -0.2949
     28 H         144.4609  139.4044  157.4008 H       1  UNL1        0.1825
     29 H         146.5693  140.2508  155.5778 H       1  UNL1        0.2414
@<TRIPOS>BOND
     1    24    25    2
     2    25    22    1
     3    22    23    2
     4    23     1    1
     5     1     2   ar
     6     2     3   ar
     7     3     4   ar
     8     4     5   ar
     9     5     6   ar
    10     5     7    1
    11     7     8    1
    12     8     9   am
    13     9    10    2
    14     9    12    1
    15    12    13   ar
    16    13    14   ar
    17    14    15   ar
    18    15    16   ar
    19    16    18    1
    20    18    19    1
    21    18    20    1
    22    18    21    1
    23    16    17   ar
    24     8    11    1
    25    25    26   am
    26    26    27    1
    27     6     1   ar
    28    17    12   ar
    29    11     4    1
    30    26    28    1
    31    27    29    1
