@<TRIPOS>MOLECULE
*****
 29 32 0 0 0
SMALL
GASTEIGER

@<TRIPOS>ATOM
      1 C         142.0870  142.1808  166.8763 C.3     1  UNL1        0.0037
      2 C         141.0591  141.5317  167.7550 C.3     1  UNL1        0.0390
      3 C         142.0026  142.4390  168.4875 C.3     1  UNL1        0.0113
      4 C         141.8637  142.6270  169.9691 C.3     1  UNL1        0.0646
      5 C         140.7814  141.9078  170.7183 C.2     1  UNL1        0.1507
      6 O         140.6425  142.0959  172.2000 O.2     1  UNL1       -0.2961
      7 C         139.8379  141.0005  169.9858 C.3     1  UNL1        0.0647
      8 C         139.9768  140.8124  168.5042 C.3     1  UNL1        0.0122
      9 C         139.2005  139.9887  167.5198 C.3     1  UNL1        0.0202
     10 C         139.8031  140.1988  166.1623 C.3     1  UNL1        0.0978
     11 C         140.9517  141.1524  166.3077 C.3     1  UNL1        0.1801
     12 N         139.3385  139.5664  164.8840 N.3     1  UNL1       -0.2697
     13 C         139.7627  138.1691  164.5411 C.3     1  UNL1        0.0722
     14 C         139.2982  137.5367  163.2627 C.3     1  UNL1        0.0187
     15 C         138.4094  138.3015  162.3273 C.3     1  UNL1        0.0183
     16 C         137.9852  139.6988  162.6702 C.3     1  UNL1        0.0670
     17 N         137.0964  140.4637  161.7347 N.3     1  UNL1       -0.3211
     18 C         138.4498  140.3312  163.9485 C.3     1  UNL1        0.0878
     19 H         136.9099  141.3883  162.1228 H       1  UNL1        0.1189
     20 H         136.2168  139.9615  161.6147 H       1  UNL1        0.1189
     21 O         141.8376  141.6410  165.2002 O.3     1  UNL1       -0.4778
     22 C         142.0979  140.7691  164.0079 C.ar    1  UNL1        0.1385
     23 C         142.9183  139.5220  164.1554 C.ar    1  UNL1        0.0376
     24 C         143.1786  138.6500  162.9630 C.ar    1  UNL1        0.0134
     25 C         142.6185  139.0251  161.6230 C.ar    1  UNL1        0.0686
     26 C         141.7981  140.2722  161.4754 C.ar    1  UNL1        0.0134
     27 C         141.5378  141.1441  162.6678 C.ar    1  UNL1        0.0376
     28 C         142.8788  138.1531  160.4305 C.1     1  UNL1        0.1004
     29 N         143.1391  137.2812  159.2381 N.1     1  UNL1       -0.1908
@<TRIPOS>BOND
     1     2     1    1
     2     2     3    1
     3     3     4    1
     4     4     5    1
     5     5     6    2
     6     5     7    1
     7     8     7    1
     8     8     9    1
     9     9    10    1
    10    10    12    1
    11    12    13    1
    12    13    14    1
    13    14    15    1
    14    15    16    1
    15    16    17    1
    16    16    18    1
    17    10    11    1
    18    11    21    1
    19    21    22    1
    20    22    23   ar
    21    23    24   ar
    22    24    25   ar
    23    25    28    1
    24    28    29    3
    25    25    26   ar
    26    26    27   ar
    27     8     2    1
    28    18    12    1
    29    27    22   ar
    30    11     2    1
    31    17    19    1
    32    17    20    1
@<TRIPOS>MOLECULE
*****
 29 32 0 0 0
SMALL
GASTEIGER

@<TRIPOS>ATOM
      1 C         138.8462  139.4530  167.3337 C.3     1  UNL1        0.0037
      2 C         139.9867  140.3369  167.7436 C.3     1  UNL1        0.0390
      3 C         139.0215  140.0334  168.8510 C.3     1  UNL1        0.0113
      4 C         139.2479  140.6025  170.2202 C.3     1  UNL1        0.0646
      5 C         140.4395  141.4751  170.4821 C.2     1  UNL1        0.1507
      6 O         140.6659  142.0443  171.8514 O.2     1  UNL1       -0.2961
      7 C         141.4047  141.7786  169.3747 C.3     1  UNL1        0.0647
      8 C         141.1783  141.2095  168.0055 C.3     1  UNL1        0.0122
      9 C         141.9522  141.3333  166.7266 C.3     1  UNL1        0.0202
     10 C         141.2389  140.5372  165.6742 C.3     1  UNL1        0.0978
     11 C         140.0242  139.9214  166.3028 C.3     1  UNL1        0.1801
     12 N         141.6655  140.3838  164.2443 N.3     1  UNL1       -0.2697
     13 C         141.4197  141.4932  163.2652 C.3     1  UNL1        0.0722
     14 C         141.8462  141.3399  161.8353 C.3     1  UNL1        0.0187
     15 C         142.5187  140.0771  161.3846 C.3     1  UNL1        0.0183
     16 C         142.7645  138.9677  162.3637 C.3     1  UNL1        0.0670
     17 N         143.4370  137.7048  161.9130 N.3     1  UNL1       -0.3211
     18 C         142.3379  139.1211  163.7936 C.3     1  UNL1        0.0878
     19 H         143.5225  137.0647  162.7025 H       1  UNL1        0.1189
     20 H         144.3650  137.9243  161.5512 H       1  UNL1        0.1189
     21 O         139.0227  139.0440  165.6119 O.3     1  UNL1       -0.4778
     22 C         138.6864  139.2815  164.1696 C.ar    1  UNL1        0.1385
     23 C         139.0182  138.2413  163.1410 C.ar    1  UNL1        0.0376
     24 C         138.6818  138.4788  161.6986 C.ar    1  UNL1        0.0134
     25 C         138.0136  139.7564  161.2848 C.ar    1  UNL1        0.0686
     26 C         137.6817  140.7966  162.3134 C.ar    1  UNL1        0.0134
     27 C         138.0181  140.5591  163.7557 C.ar    1  UNL1        0.0376
     28 C         137.6772  139.9939  159.8424 C.1     1  UNL1        0.1004
     29 N         137.3408  140.2313  158.4000 N.1     1  UNL1       -0.1908
@<TRIPOS>BOND
     1     2     1    1
     2     2     3    1
     3     3     4    1
     4     4     5    1
     5     5     6    2
     6     5     7    1
     7     8     7    1
     8     8     9    1
     9     9    10    1
    10    10    12    1
    11    12    13    1
    12    13    14    1
    13    14    15    1
    14    15    16    1
    15    16    17    1
    16    16    18    1
    17    10    11    1
    18    11    21    1
    19    21    22    1
    20    22    23   ar
    21    23    24   ar
    22    24    25   ar
    23    25    28    1
    24    28    29    3
    25    25    26   ar
    26    26    27   ar
    27     8     2    1
    28    18    12    1
    29    27    22   ar
    30    11     2    1
    31    17    19    1
    32    17    20    1
@<TRIPOS>MOLECULE
*****
 29 32 0 0 0
SMALL
GASTEIGER

@<TRIPOS>ATOM
      1 C         139.5199  139.5509  167.3389 C.3     1  UNL1        0.0037
      2 C         139.9302  140.9293  167.7654 C.3     1  UNL1        0.0390
      3 C         139.6965  139.9822  168.9049 C.3     1  UNL1        0.0113
      4 C         139.8786  140.4502  170.3184 C.3     1  UNL1        0.0646
      5 C         140.2942  141.8651  170.5923 C.2     1  UNL1        0.1507
      6 O         140.4762  142.3331  172.0059 O.2     1  UNL1       -0.2961
      7 C         140.5278  142.8122  169.4528 C.3     1  UNL1        0.0647
      8 C         140.3458  142.3442  168.0394 C.3     1  UNL1        0.0122
      9 C         140.5026  143.0446  166.7222 C.3     1  UNL1        0.0202
     10 C         140.1838  142.0624  165.6342 C.3     1  UNL1        0.0978
     11 C         139.8301  140.7551  166.2790 C.3     1  UNL1        0.1801
     12 N         140.2136  142.3391  164.1602 N.3     1  UNL1       -0.2697
     13 C         141.5173  142.3144  163.4187 C.3     1  UNL1        0.0722
     14 C         141.5471  142.5910  161.9447 C.3     1  UNL1        0.0187
     15 C         140.2732  142.8923  161.2123 C.3     1  UNL1        0.0183
     16 C         138.9696  142.9169  161.9538 C.3     1  UNL1        0.0670
     17 N         137.6957  143.2182  161.2213 N.3     1  UNL1       -0.3211
     18 C         138.9398  142.6403  163.4278 C.3     1  UNL1        0.0878
     19 H         136.9134  143.1932  161.8754 H       1  UNL1        0.1189
     20 H         137.5505  142.5213  160.4908 H       1  UNL1        0.1189
     21 O         139.4439  139.4949  165.5629 O.3     1  UNL1       -0.4778
     22 C         140.1753  139.0846  164.3193 C.ar    1  UNL1        0.1385
     23 C         139.4398  138.9818  163.0160 C.ar    1  UNL1        0.0376
     24 C         140.1712  138.5716  161.7724 C.ar    1  UNL1        0.0134
     25 C         141.6381  138.2641  161.8319 C.ar    1  UNL1        0.0686
     26 C         142.3737  138.3669  163.1352 C.ar    1  UNL1        0.0134
     27 C         141.6423  138.7771  164.3788 C.ar    1  UNL1        0.0376
     28 C         142.3696  137.8538  160.5883 C.1     1  UNL1        0.1004
     29 N         143.1010  137.4436  159.3446 N.1     1  UNL1       -0.1908
@<TRIPOS>BOND
     1     2     1    1
     2     2     3    1
     3     3     4    1
     4     4     5    1
     5     5     6    2
     6     5     7    1
     7     8     7    1
     8     8     9    1
     9     9    10    1
    10    10    12    1
    11    12    13    1
    12    13    14    1
    13    14    15    1
    14    15    16    1
    15    16    17    1
    16    16    18    1
    17    10    11    1
    18    11    21    1
    19    21    22    1
    20    22    23   ar
    21    23    24   ar
    22    24    25   ar
    23    25    28    1
    24    28    29    3
    25    25    26   ar
    26    26    27   ar
    27     8     2    1
    28    18    12    1
    29    27    22   ar
    30    11     2    1
    31    17    19    1
    32    17    20    1
@<TRIPOS>MOLECULE
*****
 29 32 0 0 0
SMALL
GASTEIGER

@<TRIPOS>ATOM
      1 C         142.3171  142.0050  167.0315 C.3     1  UNL1        0.0037
      2 C         141.1789  141.4574  167.8407 C.3     1  UNL1        0.0390
      3 C         142.1408  142.2954  168.6297 C.3     1  UNL1        0.0113
      4 C         141.9136  142.5184  170.0955 C.3     1  UNL1        0.0646
      5 C         140.7246  141.9034  170.7723 C.2     1  UNL1        0.1507
      6 O         140.4975  142.1265  172.2382 O.2     1  UNL1       -0.2961
      7 C         139.7628  141.0654  169.9833 C.3     1  UNL1        0.0647
      8 C         139.9900  140.8424  168.5175 C.3     1  UNL1        0.0122
      9 C         139.2191  140.0697  167.4885 C.3     1  UNL1        0.0202
     10 C         139.9317  140.2072  166.1757 C.3     1  UNL1        0.0978
     11 C         141.1429  141.0648  166.3934 C.3     1  UNL1        0.1801
     12 N         139.5075  139.5946  164.8739 N.3     1  UNL1       -0.2697
     13 C         140.0723  138.2718  164.4481 C.3     1  UNL1        0.0722
     14 C         139.6481  137.6592  163.1463 C.3     1  UNL1        0.0187
     15 C         138.6592  138.3694  162.2702 C.3     1  UNL1        0.0183
     16 C         138.0944  139.6921  162.6959 C.3     1  UNL1        0.0670
     17 N         137.1054  140.4024  161.8198 N.3     1  UNL1       -0.3211
     18 C         138.5186  140.3047  163.9978 C.3     1  UNL1        0.0878
     19 H         136.8292  141.2797  162.2607 H       1  UNL1        0.1189
     20 H         136.2827  139.8137  161.6892 H       1  UNL1        0.1189
     21 O         142.1427  141.4605  165.3474 O.3     1  UNL1       -0.4778
     22 C         141.7064  142.2654  164.1593 C.ar    1  UNL1        0.1385
     23 C         141.2213  143.6727  164.3440 C.ar    1  UNL1        0.0376
     24 C         140.7851  144.4776  163.1558 C.ar    1  UNL1        0.0134
     25 C         140.8340  143.8753  161.7829 C.ar    1  UNL1        0.0686
     26 C         141.3191  142.4679  161.5982 C.ar    1  UNL1        0.0134
     27 C         141.7553  141.6630  162.7864 C.ar    1  UNL1        0.0376
     28 C         140.3978  144.6802  160.5947 C.1     1  UNL1        0.1004
     29 N         139.9616  145.4851  159.4065 N.1     1  UNL1       -0.1908
@<TRIPOS>BOND
     1     2     1    1
     2     2     3    1
     3     3     4    1
     4     4     5    1
     5     5     6    2
     6     5     7    1
     7     8     7    1
     8     8     9    1
     9     9    10    1
    10    10    12    1
    11    12    13    1
    12    13    14    1
    13    14    15    1
    14    15    16    1
    15    16    17    1
    16    16    18    1
    17    10    11    1
    18    11    21    1
    19    21    22    1
    20    22    23   ar
    21    23    24   ar
    22    24    25   ar
    23    25    28    1
    24    28    29    3
    25    25    26   ar
    26    26    27   ar
    27     8     2    1
    28    18    12    1
    29    27    22   ar
    30    11     2    1
    31    17    19    1
    32    17    20    1
@<TRIPOS>MOLECULE
*****
 29 32 0 0 0
SMALL
GASTEIGER

@<TRIPOS>ATOM
      1 C         142.7685  139.0391  167.3649 C.3     1  UNL1        0.0037
      2 C         141.6072  139.8924  167.7811 C.3     1  UNL1        0.0390
      3 C         142.5514  139.5602  168.8982 C.3     1  UNL1        0.0113
      4 C         142.2867  140.0749  170.2820 C.3     1  UNL1        0.0646
      5 C         141.0778  140.9218  170.5487 C.2     1  UNL1        0.1507
      6 O         140.8131  141.4365  171.9327 O.2     1  UNL1       -0.2961
      7 C         140.1335  141.2540  169.4317 C.3     1  UNL1        0.0647
      8 C         140.3982  140.7393  168.0479 C.3     1  UNL1        0.0122
      9 C         139.6515  140.9008  166.7570 C.3     1  UNL1        0.0202
     10 C         140.3989  140.1538  165.6925 C.3     1  UNL1        0.0978
     11 C         141.6076  139.5305  166.3254 C.3     1  UNL1        0.1801
     12 N         140.0065  140.0484  164.2485 N.3     1  UNL1       -0.2697
     13 C         140.4127  141.1201  163.2808 C.3     1  UNL1        0.0722
     14 C         140.0203  141.0148  161.8369 C.3     1  UNL1        0.0187
     15 C         139.2218  139.8378  161.3607 C.3     1  UNL1        0.0183
     16 C         138.8156  138.7661  162.3283 C.3     1  UNL1        0.0670
     17 N         138.0170  137.5890  161.8521 N.3     1  UNL1       -0.3211
     18 C         139.2080  138.8714  163.7723 C.3     1  UNL1        0.0878
     19 H         137.8309  136.9645  162.6368 H       1  UNL1        0.1189
     20 H         138.5435  137.0880  161.1364 H       1  UNL1        0.1189
     21 O         142.6361  138.6925  165.6256 O.3     1  UNL1       -0.4778
     22 C         142.9451  138.9378  164.1784 C.ar    1  UNL1        0.1385
     23 C         142.4680  137.9711  163.1353 C.ar    1  UNL1        0.0376
     24 C         142.7770  138.2164  161.6881 C.ar    1  UNL1        0.0134
     25 C         143.5631  139.4283  161.2840 C.ar    1  UNL1        0.0686
     26 C         144.0402  140.3950  162.3270 C.ar    1  UNL1        0.0134
     27 C         143.7312  140.1497  163.7742 C.ar    1  UNL1        0.0376
     28 C         143.8721  139.6736  159.8368 C.1     1  UNL1        0.1004
     29 N         144.1811  139.9189  158.3896 N.1     1  UNL1       -0.1908
@<TRIPOS>BOND
     1     2     1    1
     2     2     3    1
     3     3     4    1
     4     4     5    1
     5     5     6    2
     6     5     7    1
     7     8     7    1
     8     8     9    1
     9     9    10    1
    10    10    12    1
    11    12    13    1
    12    13    14    1
    13    14    15    1
    14    15    16    1
    15    16    17    1
    16    16    18    1
    17    10    11    1
    18    11    21    1
    19    21    22    1
    20    22    23   ar
    21    23    24   ar
    22    24    25   ar
    23    25    28    1
    24    28    29    3
    25    25    26   ar
    26    26    27   ar
    27     8     2    1
    28    18    12    1
    29    27    22   ar
    30    11     2    1
    31    17    19    1
    32    17    20    1
@<TRIPOS>MOLECULE
*****
 29 32 0 0 0
SMALL
GASTEIGER

@<TRIPOS>ATOM
      1 C         140.1850  140.0819  167.1585 C.3     1  UNL1        0.0037
      2 C         141.0519  140.9946  167.9742 C.3     1  UNL1        0.0390
      3 C         139.8833  140.4298  168.7261 C.3     1  UNL1        0.0113
      4 C         139.6703  140.7949  170.1653 C.3     1  UNL1        0.0646
      5 C         140.6258  141.7248  170.8526 C.2     1  UNL1        0.1507
      6 O         140.4127  142.0898  172.2918 O.2     1  UNL1       -0.2961
      7 C         141.7943  142.2896  170.1006 C.3     1  UNL1        0.0647
      8 C         142.0074  141.9245  168.6615 C.3     1  UNL1        0.0122
      9 C         143.0613  142.3215  167.6707 C.3     1  UNL1        0.0202
     10 C         142.7572  141.6370  166.3711 C.3     1  UNL1        0.0978
     11 C         141.5153  140.8170  166.5587 C.3     1  UNL1        0.1801
     12 N         143.5548  141.7524  165.1060 N.3     1  UNL1       -0.2697
     13 C         144.3402  140.5768  164.6047 C.3     1  UNL1        0.0722
     14 C         145.1379  140.6921  163.3397 C.3     1  UNL1        0.0187
     15 C         145.1502  141.9830  162.5758 C.3     1  UNL1        0.0183
     16 C         144.3649  143.1585  163.0771 C.3     1  UNL1        0.0670
     17 N         144.3772  144.4495  162.3133 N.3     1  UNL1       -0.3211
     18 C         143.5672  143.0432  164.3422 C.3     1  UNL1        0.0878
     19 H         143.7940  145.1345  162.7939 H       1  UNL1        0.1189
     20 H         144.0126  144.2922  161.3737 H       1  UNL1        0.1189
     21 O         140.8530  139.9682  165.5141 O.3     1  UNL1       -0.4778
     22 C         140.4088  140.5822  164.2198 C.ar    1  UNL1        0.1385
     23 C         139.2811  141.5712  164.2067 C.ar    1  UNL1        0.0376
     24 C         138.8370  142.1852  162.9122 C.ar    1  UNL1        0.0134
     25 C         139.5204  141.8103  161.6307 C.ar    1  UNL1        0.0686
     26 C         140.6482  140.8213  161.6437 C.ar    1  UNL1        0.0134
     27 C         141.0923  140.2073  162.9382 C.ar    1  UNL1        0.0376
     28 C         139.0763  142.4243  160.3363 C.1     1  UNL1        0.1004
     29 N         138.6321  143.0383  159.0418 N.1     1  UNL1       -0.1908
@<TRIPOS>BOND
     1     2     1    1
     2     2     3    1
     3     3     4    1
     4     4     5    1
     5     5     6    2
     6     5     7    1
     7     8     7    1
     8     8     9    1
     9     9    10    1
    10    10    12    1
    11    12    13    1
    12    13    14    1
    13    14    15    1
    14    15    16    1
    15    16    17    1
    16    16    18    1
    17    10    11    1
    18    11    21    1
    19    21    22    1
    20    22    23   ar
    21    23    24   ar
    22    24    25   ar
    23    25    28    1
    24    28    29    3
    25    25    26   ar
    26    26    27   ar
    27     8     2    1
    28    18    12    1
    29    27    22   ar
    30    11     2    1
    31    17    19    1
    32    17    20    1
@<TRIPOS>MOLECULE
*****
 29 32 0 0 0
SMALL
GASTEIGER

@<TRIPOS>ATOM
      1 C         139.7058  140.5698  166.7780 C.3     1  UNL1        0.0037
      2 C         140.7921  140.9925  167.7221 C.3     1  UNL1        0.0390
      3 C         139.5594  140.4755  168.4026 C.3     1  UNL1        0.0113
      4 C         139.4975  140.4184  169.9002 C.3     1  UNL1        0.0646
      5 C         140.6683  140.8782  170.7173 C.2     1  UNL1        0.1507
      6 O         140.6063  140.8211  172.2150 O.2     1  UNL1       -0.2961
      7 C         141.9010  141.3952  170.0369 C.3     1  UNL1        0.0647
      8 C         141.9629  141.4524  168.5393 C.3     1  UNL1        0.0122
      9 C         143.0356  141.9097  167.5958 C.3     1  UNL1        0.0202
     10 C         142.5278  141.7325  166.1955 C.3     1  UNL1        0.0978
     11 C         141.1412  141.1657  166.2736 C.3     1  UNL1        0.1801
     12 N         143.2753  142.0640  164.9380 N.3     1  UNL1       -0.2697
     13 C         144.2139  141.0604  164.3368 C.3     1  UNL1        0.0722
     14 C         144.9614  141.3918  163.0792 C.3     1  UNL1        0.0187
     15 C         144.7702  142.7270  162.4229 C.3     1  UNL1        0.0183
     16 C         143.8315  143.7306  163.0241 C.3     1  UNL1        0.0670
     17 N         143.6403  145.0659  162.3678 N.3     1  UNL1       -0.3211
     18 C         143.0841  143.3991  164.2817 C.3     1  UNL1        0.0878
     19 H         142.9728  145.6173  162.9071 H       1  UNL1        0.1189
     20 H         143.2844  144.9316  161.4214 H       1  UNL1        0.1189
     21 O         140.2587  140.8308  165.1079 O.3     1  UNL1       -0.4778
     22 C         140.8332  140.1419  163.9057 C.ar    1  UNL1        0.1385
     23 C         140.8952  140.8581  162.5892 C.ar    1  UNL1        0.0376
     24 C         141.4698  140.1692  161.3870 C.ar    1  UNL1        0.0134
     25 C         141.9823  138.7642  161.5012 C.ar    1  UNL1        0.0686
     26 C         141.9203  138.0479  162.8178 C.ar    1  UNL1        0.0134
     27 C         141.3458  138.7368  164.0200 C.ar    1  UNL1        0.0376
     28 C         142.5569  138.0753  160.2991 C.1     1  UNL1        0.1004
     29 N         143.1315  137.3863  159.0969 N.1     1  UNL1       -0.1908
@<TRIPOS>BOND
     1     2     1    1
     2     2     3    1
     3     3     4    1
     4     4     5    1
     5     5     6    2
     6     5     7    1
     7     8     7    1
     8     8     9    1
     9     9    10    1
    10    10    12    1
    11    12    13    1
    12    13    14    1
    13    14    15    1
    14    15    16    1
    15    16    17    1
    16    16    18    1
    17    10    11    1
    18    11    21    1
    19    21    22    1
    20    22    23   ar
    21    23    24   ar
    22    24    25   ar
    23    25    28    1
    24    28    29    3
    25    25    26   ar
    26    26    27   ar
    27     8     2    1
    28    18    12    1
    29    27    22   ar
    30    11     2    1
    31    17    19    1
    32    17    20    1
@<TRIPOS>MOLECULE
*****
 29 32 0 0 0
SMALL
GASTEIGER

@<TRIPOS>ATOM
      1 C         140.3686  143.1414  166.5729 C.3     1  UNL1        0.0037
      2 C         140.2137  141.9634  167.4886 C.3     1  UNL1        0.0390
      3 C         140.3986  143.2701  168.2015 C.3     1  UNL1        0.0113
      4 C         140.4156  143.3105  169.7008 C.3     1  UNL1        0.0646
      5 C         140.2477  142.0443  170.4872 C.2     1  UNL1        0.1507
      6 O         140.2647  142.0848  171.9866 O.2     1  UNL1       -0.2961
      7 C         140.0628  140.7376  169.7743 C.3     1  UNL1        0.0647
      8 C         140.0458  140.6971  168.2750 C.3     1  UNL1        0.0122
      9 C         139.8831  139.5661  167.3032 C.3     1  UNL1        0.0202
     10 C         139.9505  140.1333  165.9162 C.3     1  UNL1        0.0978
     11 C         140.1548  141.6149  166.0308 C.3     1  UNL1        0.1801
     12 N         139.8339  139.3555  164.6389 N.3     1  UNL1       -0.2697
     13 C         140.9498  138.4509  164.2072 C.3     1  UNL1        0.0722
     14 C         140.8333  137.6731  162.9299 C.3     1  UNL1        0.0187
     15 C         139.6008  137.7999  162.0844 C.3     1  UNL1        0.0183
     16 C         138.4850  138.7045  162.5161 C.3     1  UNL1        0.0670
     17 N         137.2524  138.8313  161.6705 N.3     1  UNL1       -0.3211
     18 C         138.6015  139.4823  163.7934 C.3     1  UNL1        0.0878
     19 H         136.6032  139.4828  162.1115 H       1  UNL1        0.1189
     20 H         136.8077  137.9180  161.5786 H       1  UNL1        0.1189
     21 O         140.2785  142.5788  164.8882 O.3     1  UNL1       -0.4778
     22 C         141.0246  142.1815  163.6491 C.ar    1  UNL1        0.1385
     23 C         140.3239  142.1699  162.3229 C.ar    1  UNL1        0.0376
     24 C         141.0701  141.7725  161.0839 C.ar    1  UNL1        0.0134
     25 C         142.5171  141.3869  161.1709 C.ar    1  UNL1        0.0686
     26 C         143.2179  141.3986  162.4971 C.ar    1  UNL1        0.0134
     27 C         142.4716  141.7959  163.7362 C.ar    1  UNL1        0.0376
     28 C         143.2633  140.9896  159.9319 C.1     1  UNL1        0.1004
     29 N         144.0095  140.5923  158.6928 N.1     1  UNL1       -0.1908
@<TRIPOS>BOND
     1     2     1    1
     2     2     3    1
     3     3     4    1
     4     4     5    1
     5     5     6    2
     6     5     7    1
     7     8     7    1
     8     8     9    1
     9     9    10    1
    10    10    12    1
    11    12    13    1
    12    13    14    1
    13    14    15    1
    14    15    16    1
    15    16    17    1
    16    16    18    1
    17    10    11    1
    18    11    21    1
    19    21    22    1
    20    22    23   ar
    21    23    24   ar
    22    24    25   ar
    23    25    28    1
    24    28    29    3
    25    25    26   ar
    26    26    27   ar
    27     8     2    1
    28    18    12    1
    29    27    22   ar
    30    11     2    1
    31    17    19    1
    32    17    20    1
@<TRIPOS>MOLECULE
*****
 29 32 0 0 0
SMALL
GASTEIGER

@<TRIPOS>ATOM
      1 C         140.3157  143.0371  166.6268 C.3     1  UNL1        0.0037
      2 C         140.7053  141.9166  167.5448 C.3     1  UNL1        0.0390
      3 C         140.2925  143.1717  168.2550 C.3     1  UNL1        0.0113
      4 C         140.2963  143.2209  169.7541 C.3     1  UNL1        0.0646
      5 C         140.7129  142.0151  170.5431 C.2     1  UNL1        0.1507
      6 O         140.7166  142.0644  172.0423 O.2     1  UNL1       -0.2961
      7 C         141.1257  140.7601  169.8329 C.3     1  UNL1        0.0647
      8 C         141.1219  140.7108  168.3337 C.3     1  UNL1        0.0122
      9 C         141.4753  139.6221  167.3643 C.3     1  UNL1        0.0202
     10 C         141.2771  140.1549  165.9763 C.3     1  UNL1        0.0978
     11 C         140.8012  141.5731  166.0878 C.3     1  UNL1        0.1801
     12 N         141.5132  139.4019  164.7007 N.3     1  UNL1       -0.2697
     13 C         142.9101  139.2172  164.1864 C.3     1  UNL1        0.0722
     14 C         143.1463  138.4642  162.9108 C.3     1  UNL1        0.0187
     15 C         141.9856  137.8958  162.1495 C.3     1  UNL1        0.0183
     16 C         140.5887  138.0805  162.6638 C.3     1  UNL1        0.0670
     17 N         139.4279  137.5121  161.9024 N.3     1  UNL1       -0.3211
     18 C         140.3525  138.8335  163.9394 C.3     1  UNL1        0.0878
     19 H         138.5603  137.7304  162.3924 H       1  UNL1        0.1189
     20 H         139.5318  136.5000  161.8296 H       1  UNL1        0.1189
     21 O         140.4779  142.4872  164.9433 O.3     1  UNL1       -0.4778
     22 C         141.3500  142.4984  163.7229 C.ar    1  UNL1        0.1385
     23 C         140.7903  142.0748  162.3972 C.ar    1  UNL1        0.0376
     24 C         141.6624  142.0860  161.1769 C.ar    1  UNL1        0.0134
     25 C         143.0942  142.5208  161.2821 C.ar    1  UNL1        0.0686
     26 C         143.6539  142.9444  162.6078 C.ar    1  UNL1        0.0134
     27 C         142.7818  142.9331  163.8281 C.ar    1  UNL1        0.0376
     28 C         143.9663  142.5320  160.0618 C.1     1  UNL1        0.1004
     29 N         144.8384  142.5432  158.8414 N.1     1  UNL1       -0.1908
@<TRIPOS>BOND
     1     2     1    1
     2     2     3    1
     3     3     4    1
     4     4     5    1
     5     5     6    2
     6     5     7    1
     7     8     7    1
     8     8     9    1
     9     9    10    1
    10    10    12    1
    11    12    13    1
    12    13    14    1
    13    14    15    1
    14    15    16    1
    15    16    17    1
    16    16    18    1
    17    10    11    1
    18    11    21    1
    19    21    22    1
    20    22    23   ar
    21    23    24   ar
    22    24    25   ar
    23    25    28    1
    24    28    29    3
    25    25    26   ar
    26    26    27   ar
    27     8     2    1
    28    18    12    1
    29    27    22   ar
    30    11     2    1
    31    17    19    1
    32    17    20    1
