@<TRIPOS>MOLECULE
*****
 35 40 0 0 0
SMALL
GASTEIGER

@<TRIPOS>ATOM
      1 C         142.9932  139.2972  159.2626 C.3     1  UNL1        0.0646
      2 C         142.7451  138.1070  160.1412 C.3     1  UNL1        0.0759
      3 C         142.6186  138.5983  164.6125 C.3     1  UNL1        0.0464
      4 C         141.4968  137.9000  163.9027 C.3     1  UNL1        0.0234
      5 C         141.5390  137.7363  162.4123 C.3     1  UNL1        0.0725
      6 N         142.7029  138.2708  161.6316 N.3     1  UNL1       -0.2725
      7 C         143.8247  138.9691  162.3415 C.3     1  UNL1        0.0725
      8 C         143.7826  139.1328  163.8319 C.3     1  UNL1        0.0234
      9 F         138.4188  140.4377  170.0541 F       1  UNL1       -0.2041
     10 C         139.4097  140.0275  169.0053 C.ar    1  UNL1        0.1433
     11 C         139.0067  140.0050  167.5607 C.ar    1  UNL1        0.0299
     12 C         139.9976  139.5948  166.5119 C.ar    1  UNL1        0.0067
     13 C         141.3915  139.2071  166.9078 C.ar    1  UNL1        0.0540
     14 C         142.5765  138.7621  166.1030 C.ar    1  UNL1        0.1003
     15 N         143.7118  138.5095  167.0502 N.ar    1  UNL1       -0.0814
     16 O         143.2286  138.7985  168.4405 O.2     1  UNL1       -0.3536
     17 C         141.7945  139.2296  168.3525 C.ar    1  UNL1        0.1787
     18 C         140.8036  139.6398  169.4012 C.ar    1  UNL1        0.0698
     19 C         141.8413  140.1339  158.7902 C.3     1  UNL1        0.2068
     20 O         141.6291  141.5064  159.3570 O.3     1  UNL1       -0.4754
     21 C         141.6873  141.7226  160.8402 C.ar    1  UNL1        0.1386
     22 C         140.5645  141.2443  161.7124 C.ar    1  UNL1        0.0371
     23 C         140.6226  141.4604  163.1956 C.ar    1  UNL1        0.0078
     24 C         141.8035  142.1549  163.8065 C.ar    1  UNL1        0.0538
     25 C         142.9263  142.6332  162.9344 C.ar    1  UNL1        0.0078
     26 C         142.8681  142.4170  161.4512 C.ar    1  UNL1        0.0371
     27 C         141.8617  142.3711  165.2897 C.ar    1  UNL1        0.2297
     28 N         143.0602  142.1563  166.1658 N.ar    1  UNL1       -0.2083
     29 C         142.6708  142.4924  167.5748 C.ar    1  UNL1        0.1189
     30 C         143.4408  142.4684  168.8619 C.ar    1  UNL1        0.0223
     31 C         142.7715  142.8669  170.1438 C.ar    1  UNL1        0.0018
     32 C         141.3323  143.2894  170.1386 C.ar    1  UNL1        0.0032
     33 C         140.5623  143.3135  168.8516 C.ar    1  UNL1        0.0391
     34 C         141.2316  142.9150  167.5696 C.ar    1  UNL1        0.1647
     35 O         140.7315  142.8400  166.1575 O.2     1  UNL1       -0.4346
@<TRIPOS>BOND
     1     9    10    1
     2    10    11   ar
     3    11    12   ar
     4    12    13   ar
     5    13    14   ar
     6    14     3    1
     7     3     4    1
     8     4     5    1
     9     5     6    1
    10     6     2    1
    11     2     1    1
    12     1    19    1
    13    19    20    1
    14    20    21    1
    15    21    22   ar
    16    22    23   ar
    17    23    24   ar
    18    24    27    1
    19    27    28   ar
    20    28    29   ar
    21    29    30   ar
    22    30    31   ar
    23    31    32   ar
    24    32    33   ar
    25    33    34   ar
    26    34    35   ar
    27    24    25   ar
    28    25    26   ar
    29     6     7    1
    30     7     8    1
    31    14    15   ar
    32    15    16   ar
    33    16    17   ar
    34    17    18   ar
    35    18    10   ar
    36    17    13   ar
    37     8     3    1
    38    26    21   ar
    39    35    27   ar
    40    34    29   ar
@<TRIPOS>MOLECULE
*****
 35 40 0 0 0
SMALL
GASTEIGER

@<TRIPOS>ATOM
      1 C         140.2615  145.3036  158.7225 C.3     1  UNL1        0.0646
      2 C         140.2237  143.9054  158.1804 C.3     1  UNL1        0.0759
      3 C         140.0718  140.4022  161.0008 C.3     1  UNL1        0.0464
      4 C         141.3898  140.8761  160.4638 C.3     1  UNL1        0.0234
      5 C         141.4404  142.0439  159.5237 C.3     1  UNL1        0.0725
      6 N         140.1731  142.7377  159.1206 N.3     1  UNL1       -0.2725
      7 C         138.8552  142.2637  159.6576 C.3     1  UNL1        0.0725
      8 C         138.8046  141.0960  160.5977 C.3     1  UNL1        0.0234
      9 F         137.7002  138.2715  167.3622 F       1  UNL1       -0.2041
     10 C         138.2554  138.5865  166.0048 C.ar    1  UNL1        0.1433
     11 C         138.0645  139.9523  165.4149 C.ar    1  UNL1        0.0299
     12 C         138.6197  140.2673  164.0575 C.ar    1  UNL1        0.0067
     13 C         139.3657  139.2165  163.2900 C.ar    1  UNL1        0.0540
     14 C         140.0212  139.2344  161.9410 C.ar    1  UNL1        0.1003
     15 N         140.6173  137.8797  161.6971 N.ar    1  UNL1       -0.0814
     16 O         140.3301  137.0244  162.8954 O.2     1  UNL1       -0.3536
     17 C         139.5566  137.8506  163.8799 C.ar    1  UNL1        0.1787
     18 C         139.0014  137.5356  165.2373 C.ar    1  UNL1        0.0698
     19 C         140.5291  145.5360  160.1800 C.3     1  UNL1        0.2068
     20 O         139.4244  145.3703  161.1811 O.3     1  UNL1       -0.4754
     21 C         139.6945  144.6901  162.4904 C.ar    1  UNL1        0.1386
     22 C         138.6575  144.7105  163.5741 C.ar    1  UNL1        0.0371
     23 C         138.9276  144.0303  164.8834 C.ar    1  UNL1        0.0078
     24 C         140.2347  143.3298  165.1090 C.ar    1  UNL1        0.0538
     25 C         141.2717  143.3095  164.0254 C.ar    1  UNL1        0.0078
     26 C         141.0016  143.9897  162.7160 C.ar    1  UNL1        0.0371
     27 C         140.5049  142.6497  166.4184 C.ar    1  UNL1        0.2297
     28 N         141.0472  141.2624  166.5960 N.ar    1  UNL1       -0.2083
     29 C         141.1576  140.9926  168.0674 C.ar    1  UNL1        0.1189
     30 C         141.6286  139.7934  168.8354 C.ar    1  UNL1        0.0223
     31 C         141.6255  139.8146  170.3352 C.ar    1  UNL1        0.0018
     32 C         141.1515  141.0351  171.0671 C.ar    1  UNL1        0.0032
     33 C         140.6805  142.2344  170.2991 C.ar    1  UNL1        0.0391
     34 C         140.6836  142.2132  168.7992 C.ar    1  UNL1        0.1647
     35 O         140.2802  143.2372  167.7801 O.2     1  UNL1       -0.4346
@<TRIPOS>BOND
     1     9    10    1
     2    10    11   ar
     3    11    12   ar
     4    12    13   ar
     5    13    14   ar
     6    14     3    1
     7     3     4    1
     8     4     5    1
     9     5     6    1
    10     6     2    1
    11     2     1    1
    12     1    19    1
    13    19    20    1
    14    20    21    1
    15    21    22   ar
    16    22    23   ar
    17    23    24   ar
    18    24    27    1
    19    27    28   ar
    20    28    29   ar
    21    29    30   ar
    22    30    31   ar
    23    31    32   ar
    24    32    33   ar
    25    33    34   ar
    26    34    35   ar
    27    24    25   ar
    28    25    26   ar
    29     6     7    1
    30     7     8    1
    31    14    15   ar
    32    15    16   ar
    33    16    17   ar
    34    17    18   ar
    35    18    10   ar
    36    17    13   ar
    37     8     3    1
    38    26    21   ar
    39    35    27   ar
    40    34    29   ar
@<TRIPOS>MOLECULE
*****
 35 40 0 0 0
SMALL
GASTEIGER

@<TRIPOS>ATOM
      1 C         138.9485  140.4759  159.3893 C.3     1  UNL1        0.0646
      2 C         138.8268  139.2521  160.2481 C.3     1  UNL1        0.0759
      3 C         141.0333  139.0224  164.1634 C.3     1  UNL1        0.0464
      4 C         139.7469  138.2724  163.9823 C.3     1  UNL1        0.0234
      5 C         139.0114  138.3490  162.6772 C.3     1  UNL1        0.0725
      6 N         139.5623  139.1755  161.5532 N.3     1  UNL1       -0.2725
      7 C         140.8487  139.9255  161.7343 C.3     1  UNL1        0.0725
      8 C         141.5841  139.8489  163.0394 C.3     1  UNL1        0.0234
      9 F         140.3838  140.0684  171.1717 F       1  UNL1       -0.2041
     10 C         140.6586  139.8074  169.7203 C.ar    1  UNL1        0.1433
     11 C         139.5799  140.0270  168.7015 C.ar    1  UNL1        0.0299
     12 C         139.8546  139.7660  167.2501 C.ar    1  UNL1        0.0067
     13 C         141.2080  139.2852  166.8177 C.ar    1  UNL1        0.0540
     14 C         141.7687  138.9458  165.4685 C.ar    1  UNL1        0.1003
     15 N         143.1940  138.5163  165.6535 N.ar    1  UNL1       -0.0814
     16 O         143.5141  138.5903  167.1170 O.2     1  UNL1       -0.3536
     17 C         142.2867  139.0655  167.8365 C.ar    1  UNL1        0.1787
     18 C         142.0120  139.3266  169.2879 C.ar    1  UNL1        0.0698
     19 C         137.9014  141.5477  159.4583 C.3     1  UNL1        0.2068
     20 O         138.2067  142.8522  160.1331 O.3     1  UNL1       -0.4754
     21 C         138.8144  142.8630  161.5044 C.ar    1  UNL1        0.1386
     22 C         140.1494  143.5096  161.7280 C.ar    1  UNL1        0.0371
     23 C         140.7571  143.5205  163.0993 C.ar    1  UNL1        0.0078
     24 C         140.0299  142.8848  164.2470 C.ar    1  UNL1        0.0538
     25 C         138.6950  142.2382  164.0234 C.ar    1  UNL1        0.0078
     26 C         138.0873  142.2274  162.6521 C.ar    1  UNL1        0.0371
     27 C         140.6377  142.8957  165.6183 C.ar    1  UNL1        0.2297
     28 N         142.0468  142.5125  165.9613 N.ar    1  UNL1       -0.2083
     29 C         142.2230  142.6716  167.4424 C.ar    1  UNL1        0.1189
     30 C         143.3994  142.4402  168.3438 C.ar    1  UNL1        0.0223
     31 C         143.2756  142.6904  169.8176 C.ar    1  UNL1        0.0018
     32 C         141.9754  143.1720  170.3900 C.ar    1  UNL1        0.0032
     33 C         140.7991  143.4034  169.4886 C.ar    1  UNL1        0.0391
     34 C         140.9229  143.1532  168.0148 C.ar    1  UNL1        0.1647
     35 O         139.9431  143.2916  166.8875 O.2     1  UNL1       -0.4346
@<TRIPOS>BOND
     1     9    10    1
     2    10    11   ar
     3    11    12   ar
     4    12    13   ar
     5    13    14   ar
     6    14     3    1
     7     3     4    1
     8     4     5    1
     9     5     6    1
    10     6     2    1
    11     2     1    1
    12     1    19    1
    13    19    20    1
    14    20    21    1
    15    21    22   ar
    16    22    23   ar
    17    23    24   ar
    18    24    27    1
    19    27    28   ar
    20    28    29   ar
    21    29    30   ar
    22    30    31   ar
    23    31    32   ar
    24    32    33   ar
    25    33    34   ar
    26    34    35   ar
    27    24    25   ar
    28    25    26   ar
    29     6     7    1
    30     7     8    1
    31    14    15   ar
    32    15    16   ar
    33    16    17   ar
    34    17    18   ar
    35    18    10   ar
    36    17    13   ar
    37     8     3    1
    38    26    21   ar
    39    35    27   ar
    40    34    29   ar
@<TRIPOS>MOLECULE
*****
 35 40 0 0 0
SMALL
GASTEIGER

@<TRIPOS>ATOM
      1 C         143.7387  142.7030  156.5992 C.3     1  UNL1        0.0646
      2 C         142.3127  142.2570  156.4667 C.3     1  UNL1        0.0759
      3 C         139.6131  142.2517  160.0671 C.3     1  UNL1        0.0464
      4 C         140.1019  140.9544  159.4942 C.3     1  UNL1        0.0234
      5 C         141.0017  140.9562  158.2941 C.3     1  UNL1        0.0725
      6 N         141.4128  142.2552  157.6668 N.3     1  UNL1       -0.2725
      7 C         140.9240  143.5525  158.2397 C.3     1  UNL1        0.0725
      8 C         140.0242  143.5507  159.4398 C.3     1  UNL1        0.0234
      9 F         138.3894  145.4377  166.3108 F       1  UNL1       -0.2041
     10 C         138.5328  144.6804  165.0239 C.ar    1  UNL1        0.1433
     11 C         139.6311  145.0324  164.0650 C.ar    1  UNL1        0.0299
     12 C         139.7745  144.2752  162.7781 C.ar    1  UNL1        0.0067
     13 C         138.8195  143.1660  162.4502 C.ar    1  UNL1        0.0540
     14 C         138.7132  142.2499  161.2672 C.ar    1  UNL1        0.1003
     15 N         137.5492  141.3317  161.4950 N.ar    1  UNL1       -0.0814
     16 O         136.9360  141.6803  162.8188 O.2     1  UNL1       -0.3536
     17 C         137.7211  142.8140  163.4091 C.ar    1  UNL1        0.1787
     18 C         137.5778  143.5712  164.6960 C.ar    1  UNL1        0.0698
     19 C         144.6866  141.9354  157.4723 C.3     1  UNL1        0.2068
     20 O         145.0001  142.4285  158.8538 O.3     1  UNL1       -0.4754
     21 C         144.1377  142.0179  160.0104 C.ar    1  UNL1        0.1386
     22 C         143.4638  143.0616  160.8510 C.ar    1  UNL1        0.0371
     23 C         142.6014  142.6511  162.0076 C.ar    1  UNL1        0.0078
     24 C         142.4129  141.1969  162.3235 C.ar    1  UNL1        0.0538
     25 C         143.0868  140.1532  161.4829 C.ar    1  UNL1        0.0078
     26 C         143.9492  140.5638  160.3264 C.ar    1  UNL1        0.0371
     27 C         141.5505  140.7864  163.4801 C.ar    1  UNL1        0.2297
     28 N         140.2849  139.9855  163.3957 N.ar    1  UNL1       -0.2083
     29 C         139.7545  139.8087  164.7876 C.ar    1  UNL1        0.1189
     30 C         138.5388  139.1074  165.3169 C.ar    1  UNL1        0.0223
     31 C         138.2607  139.0976  166.7909 C.ar    1  UNL1        0.0018
     32 C         139.1984  139.7892  167.7355 C.ar    1  UNL1        0.0032
     33 C         140.4141  140.4906  167.2062 C.ar    1  UNL1        0.0391
     34 C         140.6921  140.5003  165.7323 C.ar    1  UNL1        0.1647
     35 O         141.8021  141.1045  164.9242 O.2     1  UNL1       -0.4346
@<TRIPOS>BOND
     1     9    10    1
     2    10    11   ar
     3    11    12   ar
     4    12    13   ar
     5    13    14   ar
     6    14     3    1
     7     3     4    1
     8     4     5    1
     9     5     6    1
    10     6     2    1
    11     2     1    1
    12     1    19    1
    13    19    20    1
    14    20    21    1
    15    21    22   ar
    16    22    23   ar
    17    23    24   ar
    18    24    27    1
    19    27    28   ar
    20    28    29   ar
    21    29    30   ar
    22    30    31   ar
    23    31    32   ar
    24    32    33   ar
    25    33    34   ar
    26    34    35   ar
    27    24    25   ar
    28    25    26   ar
    29     6     7    1
    30     7     8    1
    31    14    15   ar
    32    15    16   ar
    33    16    17   ar
    34    17    18   ar
    35    18    10   ar
    36    17    13   ar
    37     8     3    1
    38    26    21   ar
    39    35    27   ar
    40    34    29   ar
@<TRIPOS>MOLECULE
*****
 35 40 0 0 0
SMALL
GASTEIGER

@<TRIPOS>ATOM
      1 C         139.8440  144.9155  158.2969 C.3     1  UNL1        0.0646
      2 C         140.0550  143.4381  158.1462 C.3     1  UNL1        0.0759
      3 C         140.2760  140.8131  161.7947 C.3     1  UNL1        0.0464
      4 C         138.9443  141.2802  161.2863 C.3     1  UNL1        0.0234
      5 C         138.8707  142.1552  160.0702 C.3     1  UNL1        0.0725
      6 N         140.1286  142.5631  159.3624 N.3     1  UNL1       -0.2725
      7 C         141.4603  142.0959  159.8707 C.3     1  UNL1        0.0725
      8 C         141.5340  141.2210  161.0868 C.3     1  UNL1        0.0234
      9 F         144.7378  138.0587  166.6049 F       1  UNL1       -0.2041
     10 C         143.6898  138.5698  165.6612 C.ar    1  UNL1        0.1433
     11 C         144.0784  139.4662  164.5230 C.ar    1  UNL1        0.0299
     12 C         143.0304  139.9773  163.5793 C.ar    1  UNL1        0.0067
     13 C         141.5939  139.5920  163.7738 C.ar    1  UNL1        0.0540
     14 C         140.3497  139.9381  163.0108 C.ar    1  UNL1        0.1003
     15 N         139.1922  139.2556  163.6774 N.ar    1  UNL1       -0.0814
     16 O         139.7209  138.4877  164.8524 O.2     1  UNL1       -0.3536
     17 C         141.2053  138.6956  164.9120 C.ar    1  UNL1        0.1787
     18 C         142.2533  138.1845  165.8557 C.ar    1  UNL1        0.0698
     19 C         140.5176  145.6595  159.4117 C.3     1  UNL1        0.2068
     20 O         139.7718  145.9441  160.6816 O.3     1  UNL1       -0.4754
     21 C         140.0319  145.1169  161.9056 C.ar    1  UNL1        0.1386
     22 C         141.4404  144.7891  162.3039 C.ar    1  UNL1        0.0371
     23 C         141.7005  143.9620  163.5278 C.ar    1  UNL1        0.0078
     24 C         140.5521  143.4626  164.3535 C.ar    1  UNL1        0.0538
     25 C         139.1435  143.7903  163.9552 C.ar    1  UNL1        0.0078
     26 C         138.8834  144.6175  162.7312 C.ar    1  UNL1        0.0371
     27 C         140.8122  142.6354  165.5775 C.ar    1  UNL1        0.2297
     28 N         142.1432  142.4342  166.2393 N.ar    1  UNL1       -0.2083
     29 C         141.9406  141.5387  167.4254 C.ar    1  UNL1        0.1189
     30 C         142.8939  140.9985  168.4497 C.ar    1  UNL1        0.0223
     31 C         142.3910  140.1059  169.5454 C.ar    1  UNL1        0.0018
     32 C         140.9347  139.7536  169.6167 C.ar    1  UNL1        0.0032
     33 C         139.9814  140.2937  168.5923 C.ar    1  UNL1        0.0391
     34 C         140.4843  141.1863  167.4967 C.ar    1  UNL1        0.1647
     35 O         139.7869  141.8641  166.3546 O.2     1  UNL1       -0.4346
@<TRIPOS>BOND
     1     9    10    1
     2    10    11   ar
     3    11    12   ar
     4    12    13   ar
     5    13    14   ar
     6    14     3    1
     7     3     4    1
     8     4     5    1
     9     5     6    1
    10     6     2    1
    11     2     1    1
    12     1    19    1
    13    19    20    1
    14    20    21    1
    15    21    22   ar
    16    22    23   ar
    17    23    24   ar
    18    24    27    1
    19    27    28   ar
    20    28    29   ar
    21    29    30   ar
    22    30    31   ar
    23    31    32   ar
    24    32    33   ar
    25    33    34   ar
    26    34    35   ar
    27    24    25   ar
    28    25    26   ar
    29     6     7    1
    30     7     8    1
    31    14    15   ar
    32    15    16   ar
    33    16    17   ar
    34    17    18   ar
    35    18    10   ar
    36    17    13   ar
    37     8     3    1
    38    26    21   ar
    39    35    27   ar
    40    34    29   ar
@<TRIPOS>MOLECULE
*****
 35 40 0 0 0
SMALL
GASTEIGER

@<TRIPOS>ATOM
      1 C         140.4525  143.7008  156.7322 C.3     1  UNL1        0.0646
      2 C         139.2723  142.9134  157.2192 C.3     1  UNL1        0.0759
      3 C         139.7690  139.9597  160.5777 C.3     1  UNL1        0.0464
      4 C         138.5675  140.8568  160.5394 C.3     1  UNL1        0.0234
      5 C         138.4019  141.8414  159.4199 C.3     1  UNL1        0.0725
      6 N         139.4379  141.9288  158.3387 N.3     1  UNL1       -0.2725
      7 C         140.6394  141.0317  158.3769 C.3     1  UNL1        0.0725
      8 C         140.8049  140.0472  159.4964 C.3     1  UNL1        0.0234
      9 F         138.1327  138.7049  167.3880 F       1  UNL1       -0.2041
     10 C         138.5486  138.8418  165.9533 C.ar    1  UNL1        0.1433
     11 C         138.1423  140.0528  165.1669 C.ar    1  UNL1        0.0299
     12 C         138.5582  140.1897  163.7322 C.ar    1  UNL1        0.0067
     13 C         139.3803  139.1156  163.0839 C.ar    1  UNL1        0.0540
     14 C         139.9345  138.9751  161.6971 C.ar    1  UNL1        0.1003
     15 N         140.6834  137.6773  161.6264 N.ar    1  UNL1       -0.0814
     16 O         140.5919  137.0156  162.9695 O.2     1  UNL1       -0.3536
     17 C         139.7866  137.9046  163.8702 C.ar    1  UNL1        0.1787
     18 C         139.3707  137.7677  165.3049 C.ar    1  UNL1        0.0698
     19 C         140.5153  145.1809  156.9674 C.3     1  UNL1        0.2068
     20 O         141.0453  145.7122  158.2662 O.3     1  UNL1       -0.4754
     21 C         141.2851  144.7794  159.4161 C.ar    1  UNL1        0.1386
     22 C         140.3010  144.7135  160.5462 C.ar    1  UNL1        0.0371
     23 C         140.5408  143.7806  161.6961 C.ar    1  UNL1        0.0078
     24 C         141.7648  142.9138  161.7158 C.ar    1  UNL1        0.0538
     25 C         142.7490  142.9797  160.5857 C.ar    1  UNL1        0.0078
     26 C         142.5091  143.9125  159.4358 C.ar    1  UNL1        0.0371
     27 C         142.0047  141.9810  162.8657 C.ar    1  UNL1        0.2297
     28 N         141.4893  142.1539  164.2638 N.ar    1  UNL1       -0.2083
     29 C         141.9681  140.9913  165.0816 C.ar    1  UNL1        0.1189
     30 C         141.7702  140.6292  166.5237 C.ar    1  UNL1        0.0223
     31 C         142.3837  139.3755  167.0733 C.ar    1  UNL1        0.0018
     32 C         143.1950  138.4839  166.1807 C.ar    1  UNL1        0.0032
     33 C         143.3930  138.8460  164.7386 C.ar    1  UNL1        0.0391
     34 C         142.7795  140.0997  164.1891 C.ar    1  UNL1        0.1647
     35 O         142.8021  140.7113  162.8196 O.2     1  UNL1       -0.4346
@<TRIPOS>BOND
     1     9    10    1
     2    10    11   ar
     3    11    12   ar
     4    12    13   ar
     5    13    14   ar
     6    14     3    1
     7     3     4    1
     8     4     5    1
     9     5     6    1
    10     6     2    1
    11     2     1    1
    12     1    19    1
    13    19    20    1
    14    20    21    1
    15    21    22   ar
    16    22    23   ar
    17    23    24   ar
    18    24    27    1
    19    27    28   ar
    20    28    29   ar
    21    29    30   ar
    22    30    31   ar
    23    31    32   ar
    24    32    33   ar
    25    33    34   ar
    26    34    35   ar
    27    24    25   ar
    28    25    26   ar
    29     6     7    1
    30     7     8    1
    31    14    15   ar
    32    15    16   ar
    33    16    17   ar
    34    17    18   ar
    35    18    10   ar
    36    17    13   ar
    37     8     3    1
    38    26    21   ar
    39    35    27   ar
    40    34    29   ar
@<TRIPOS>MOLECULE
*****
 35 40 0 0 0
SMALL
GASTEIGER

@<TRIPOS>ATOM
      1 C         142.5684  140.8660  155.7366 C.3     1  UNL1        0.0646
      2 C         141.7426  142.0646  156.0993 C.3     1  UNL1        0.0759
      3 C         139.3534  142.0806  159.9127 C.3     1  UNL1        0.0464
      4 C         138.6596  141.9104  158.5936 C.3     1  UNL1        0.0234
      5 C         139.4560  141.9051  157.3225 C.3     1  UNL1        0.0725
      6 N         140.9462  142.0699  157.3704 N.3     1  UNL1       -0.2725
      7 C         141.6399  142.2401  158.6894 C.3     1  UNL1        0.0725
      8 C         140.8435  142.2454  159.9605 C.3     1  UNL1        0.0234
      9 F         138.4942  145.4571  166.1170 F       1  UNL1       -0.2041
     10 C         138.5679  144.6557  164.8511 C.ar    1  UNL1        0.1433
     11 C         139.5646  145.0188  163.7905 C.ar    1  UNL1        0.0299
     12 C         139.6383  144.2175  162.5247 C.ar    1  UNL1        0.0067
     13 C         138.7153  143.0531  162.3193 C.ar    1  UNL1        0.0540
     14 C         138.5570  142.0859  161.1838 C.ar    1  UNL1        0.1003
     15 N         137.4624  141.1251  161.5425 N.ar    1  UNL1       -0.0814
     16 O         136.9443  141.4984  162.8997 O.2     1  UNL1       -0.3536
     17 C         137.7187  142.6900  163.3798 C.ar    1  UNL1        0.1787
     18 C         137.6449  143.4913  164.6457 C.ar    1  UNL1        0.0698
     19 C         141.9000  139.5557  155.4430 C.3     1  UNL1        0.2068
     20 O         142.0743  138.3980  156.3807 O.3     1  UNL1       -0.4754
     21 C         141.6155  138.5104  157.8044 C.ar    1  UNL1        0.1386
     22 C         142.6120  138.7697  158.8952 C.ar    1  UNL1        0.0371
     23 C         142.1532  138.8821  160.3189 C.ar    1  UNL1        0.0078
     24 C         140.6980  138.7352  160.6517 C.ar    1  UNL1        0.0538
     25 C         139.7015  138.4759  159.5609 C.ar    1  UNL1        0.0078
     26 C         140.1603  138.3635  158.1373 C.ar    1  UNL1        0.0371
     27 C         140.2393  138.8476  162.0754 C.ar    1  UNL1        0.2297
     28 N         139.4002  137.8466  162.8131 N.ar    1  UNL1       -0.2083
     29 C         139.1813  138.3610  164.2050 C.ar    1  UNL1        0.1189
     30 C         138.4321  137.7989  165.3766 C.ar    1  UNL1        0.0223
     31 C         138.3867  138.5557  166.6709 C.ar    1  UNL1        0.0018
     32 C         139.0905  139.8746  166.7936 C.ar    1  UNL1        0.0032
     33 C         139.8398  140.4367  165.6220 C.ar    1  UNL1        0.0391
     34 C         139.8852  139.6799  164.3277 C.ar    1  UNL1        0.1647
     35 O         140.5390  139.9806  163.0116 O.2     1  UNL1       -0.4346
@<TRIPOS>BOND
     1     9    10    1
     2    10    11   ar
     3    11    12   ar
     4    12    13   ar
     5    13    14   ar
     6    14     3    1
     7     3     4    1
     8     4     5    1
     9     5     6    1
    10     6     2    1
    11     2     1    1
    12     1    19    1
    13    19    20    1
    14    20    21    1
    15    21    22   ar
    16    22    23   ar
    17    23    24   ar
    18    24    27    1
    19    27    28   ar
    20    28    29   ar
    21    29    30   ar
    22    30    31   ar
    23    31    32   ar
    24    32    33   ar
    25    33    34   ar
    26    34    35   ar
    27    24    25   ar
    28    25    26   ar
    29     6     7    1
    30     7     8    1
    31    14    15   ar
    32    15    16   ar
    33    16    17   ar
    34    17    18   ar
    35    18    10   ar
    36    17    13   ar
    37     8     3    1
    38    26    21   ar
    39    35    27   ar
    40    34    29   ar
@<TRIPOS>MOLECULE
*****
 35 40 0 0 0
SMALL
GASTEIGER

@<TRIPOS>ATOM
      1 C         139.9821  144.6059  157.8302 C.3     1  UNL1        0.0646
      2 C         140.5278  143.2088  157.8106 C.3     1  UNL1        0.0759
      3 C         143.2314  141.8027  161.1218 C.3     1  UNL1        0.0464
      4 C         143.7362  142.7863  160.1080 C.3     1  UNL1        0.0234
      5 C         142.8349  143.2549  159.0043 C.3     1  UNL1        0.0725
      6 N         141.4290  142.7401  158.9143 N.3     1  UNL1       -0.2725
      7 C         140.9242  141.7565  159.9281 C.3     1  UNL1        0.0725
      8 C         141.8254  141.2878  161.0318 C.3     1  UNL1        0.0234
      9 F         143.5573  137.5943  166.8503 F       1  UNL1       -0.2041
     10 C         143.6274  138.5174  165.6700 C.ar    1  UNL1        0.1433
     11 C         142.4287  138.6977  164.7866 C.ar    1  UNL1        0.0299
     12 C         142.4988  139.6208  163.6063 C.ar    1  UNL1        0.0067
     13 C         143.7677  140.3636  163.3095 C.ar    1  UNL1        0.0540
     14 C         144.1326  141.3340  162.2255 C.ar    1  UNL1        0.1003
     15 N         145.5569  141.7534  162.4389 N.ar    1  UNL1       -0.0814
     16 O         146.0723  141.0423  163.6549 O.2     1  UNL1       -0.3536
     17 C         144.9665  140.1832  164.1929 C.ar    1  UNL1        0.1787
     18 C         144.8963  139.2601  165.3732 C.ar    1  UNL1        0.0698
     19 C         140.4265  145.5699  158.8899 C.3     1  UNL1        0.2068
     20 O         139.6073  145.7469  160.1340 O.3     1  UNL1       -0.4754
     21 C         139.9413  144.9646  161.3695 C.ar    1  UNL1        0.1386
     22 C         138.9124  144.0658  161.9890 C.ar    1  UNL1        0.0371
     23 C         139.2464  143.2835  163.2245 C.ar    1  UNL1        0.0078
     24 C         140.6091  143.4000  163.8405 C.ar    1  UNL1        0.0538
     25 C         141.6379  144.2988  163.2210 C.ar    1  UNL1        0.0078
     26 C         141.3040  145.0811  161.9855 C.ar    1  UNL1        0.0371
     27 C         140.9431  142.6177  165.0760 C.ar    1  UNL1        0.2297
     28 N         142.2429  142.6623  165.8234 N.ar    1  UNL1       -0.2083
     29 C         142.1390  141.7257  166.9904 C.ar    1  UNL1        0.1189
     30 C         143.1102  141.3600  168.0734 C.ar    1  UNL1        0.0223
     31 C         142.7174  140.3707  169.1303 C.ar    1  UNL1        0.0018
     32 C         141.3534  139.7472  169.1042 C.ar    1  UNL1        0.0032
     33 C         140.3822  140.1129  168.0212 C.ar    1  UNL1        0.0391
     34 C         140.7750  141.1021  166.9642 C.ar    1  UNL1        0.1647
     35 O         140.0359  141.6535  165.7811 O.2     1  UNL1       -0.4346
@<TRIPOS>BOND
     1     9    10    1
     2    10    11   ar
     3    11    12   ar
     4    12    13   ar
     5    13    14   ar
     6    14     3    1
     7     3     4    1
     8     4     5    1
     9     5     6    1
    10     6     2    1
    11     2     1    1
    12     1    19    1
    13    19    20    1
    14    20    21    1
    15    21    22   ar
    16    22    23   ar
    17    23    24   ar
    18    24    27    1
    19    27    28   ar
    20    28    29   ar
    21    29    30   ar
    22    30    31   ar
    23    31    32   ar
    24    32    33   ar
    25    33    34   ar
    26    34    35   ar
    27    24    25   ar
    28    25    26   ar
    29     6     7    1
    30     7     8    1
    31    14    15   ar
    32    15    16   ar
    33    16    17   ar
    34    17    18   ar
    35    18    10   ar
    36    17    13   ar
    37     8     3    1
    38    26    21   ar
    39    35    27   ar
    40    34    29   ar
@<TRIPOS>MOLECULE
*****
 35 40 0 0 0
SMALL
GASTEIGER

@<TRIPOS>ATOM
      1 C         141.3107  144.3969  157.2138 C.3     1  UNL1        0.0646
      2 C         142.4909  143.5027  157.4536 C.3     1  UNL1        0.0759
      3 C         142.6083  140.8593  161.0936 C.3     1  UNL1        0.0464
      4 C         141.7173  140.5072  159.9394 C.3     1  UNL1        0.0234
      5 C         141.6782  141.3884  158.7261 C.3     1  UNL1        0.0725
      6 N         142.5300  142.6216  158.6669 N.3     1  UNL1       -0.2725
      7 C         143.4210  142.9736  159.8212 C.3     1  UNL1        0.0725
      8 C         143.4601  142.0925  161.0344 C.3     1  UNL1        0.0234
      9 F         138.5726  136.9723  165.4796 F       1  UNL1       -0.2041
     10 C         139.5378  137.7515  164.6362 C.ar    1  UNL1        0.1433
     11 C         139.0415  138.5321  163.4554 C.ar    1  UNL1        0.0299
     12 C         140.0067  139.3113  162.6121 C.ar    1  UNL1        0.0067
     13 C         141.4682  139.3099  162.9495 C.ar    1  UNL1        0.0540
     14 C         142.6474  139.9782  162.3069 C.ar    1  UNL1        0.1003
     15 N         143.8725  139.6107  163.0905 N.ar    1  UNL1       -0.0814
     16 O         143.4505  138.7152  164.2175 O.2     1  UNL1       -0.3536
     17 C         141.9645  138.5294  164.1303 C.ar    1  UNL1        0.1787
     18 C         140.9993  137.7502  164.9737 C.ar    1  UNL1        0.0698
     19 C         141.0234  145.5284  158.1557 C.3     1  UNL1        0.2068
     20 O         139.8945  145.4189  159.1374 O.3     1  UNL1       -0.4754
     21 C         140.0920  144.6809  160.4282 C.ar    1  UNL1        0.1386
     22 C         139.3137  143.4282  160.7026 C.ar    1  UNL1        0.0371
     23 C         139.5112  142.6902  161.9934 C.ar    1  UNL1        0.0078
     24 C         140.4869  143.2048  163.0099 C.ar    1  UNL1        0.0538
     25 C         141.2652  144.4575  162.7355 C.ar    1  UNL1        0.0078
     26 C         141.0677  145.1955  161.4446 C.ar    1  UNL1        0.0371
     27 C         140.6844  142.4668  164.3007 C.ar    1  UNL1        0.2297
     28 N         141.9781  142.3261  165.0469 N.ar    1  UNL1       -0.2083
     29 C         141.7162  141.5123  166.2794 C.ar    1  UNL1        0.1189
     30 C         142.6150  141.0542  167.3895 C.ar    1  UNL1        0.0223
     31 C         142.0582  140.2340  168.5153 C.ar    1  UNL1        0.0018
     32 C         140.6027  139.8717  168.5309 C.ar    1  UNL1        0.0032
     33 C         139.7039  140.3298  167.4207 C.ar    1  UNL1        0.0391
     34 C         140.2607  141.1500  166.2950 C.ar    1  UNL1        0.1647
     35 O         139.6230  141.7400  165.0722 O.2     1  UNL1       -0.4346
@<TRIPOS>BOND
     1     9    10    1
     2    10    11   ar
     3    11    12   ar
     4    12    13   ar
     5    13    14   ar
     6    14     3    1
     7     3     4    1
     8     4     5    1
     9     5     6    1
    10     6     2    1
    11     2     1    1
    12     1    19    1
    13    19    20    1
    14    20    21    1
    15    21    22   ar
    16    22    23   ar
    17    23    24   ar
    18    24    27    1
    19    27    28   ar
    20    28    29   ar
    21    29    30   ar
    22    30    31   ar
    23    31    32   ar
    24    32    33   ar
    25    33    34   ar
    26    34    35   ar
    27    24    25   ar
    28    25    26   ar
    29     6     7    1
    30     7     8    1
    31    14    15   ar
    32    15    16   ar
    33    16    17   ar
    34    17    18   ar
    35    18    10   ar
    36    17    13   ar
    37     8     3    1
    38    26    21   ar
    39    35    27   ar
    40    34    29   ar
