@<TRIPOS>MOLECULE
*****
 43 45 0 0 0
SMALL
GASTEIGER

@<TRIPOS>ATOM
      1 C         141.7651  141.2523  165.1715 C.3     1  UNL1        0.0847
      2 C         142.8095  144.0698  162.5790 C.ar    1  UNL1        0.1653
      3 C         142.1006  142.8965  163.1881 C.ar    1  UNL1        0.0365
      4 C         142.4740  142.4256  164.5624 C.ar    1  UNL1       -0.0022
      5 C         143.5562  143.1280  165.3276 C.ar    1  UNL1       -0.0002
      6 C         144.2650  144.3012  164.7186 C.ar    1  UNL1        0.0325
      7 C         143.8917  144.7721  163.3442 C.ar    1  UNL1        0.1738
      8 F         144.6005  145.9454  162.7351 F       1  UNL1       -0.2010
      9 O         142.4362  144.5407  161.2046 O.3     1  UNL1       -0.4769
     10 C         140.4777  145.0583  159.5777 C.3     1  UNL1        0.0472
     11 C         141.0736  145.1154  160.9531 C.3     1  UNL1        0.1662
     12 C         140.3069  145.7472  162.0770 C.3     1  UNL1        0.0472
     13 C         140.4456  141.9223  164.9266 C.ar    1  UNL1       -0.0001
     14 C         140.1206  143.2138  165.6169 C.ar    1  UNL1        0.0271
     15 C         138.8011  143.8838  165.3720 C.ar    1  UNL1        0.1429
     16 F         138.1625  145.1436  165.8769 F       1  UNL1       -0.2041
     17 C         137.8065  143.2623  164.4368 C.ar    1  UNL1        0.0667
     18 C         138.1315  141.9708  163.7465 C.ar    1  UNL1        0.1461
     19 C         139.4510  141.3008  163.9914 C.ar    1  UNL1        0.0345
     20 O         137.1369  141.3493  162.8113 O.3     1  UNL1       -0.4263
     21 C         137.6078  140.6651  161.5623 C.3     1  UNL1        0.4723
     22 F         137.3641  139.3303  162.2016 F       1  UNL1       -0.1579
     23 F         137.8515  142.0000  160.9229 F       1  UNL1       -0.1579
     24 C         138.0786  139.9809  160.3132 C.3     1  UNL1        0.4202
     25 F         139.2221  139.0120  160.3744 F       1  UNL1       -0.1876
     26 F         137.4060  140.2655  159.0030 F       1  UNL1       -0.1876
     27 N         143.0846  140.5824  165.4164 N.3     1  UNL1       -0.2906
     28 H         143.0922  140.2959  166.3953 H       1  UNL1        0.1238
     29 C         143.4761  139.3795  164.6102 C.3     1  UNL1        0.1075
     30 C         144.3234  139.5424  163.3832 C.3     1  UNL1        0.2219
     31 O         144.3024  138.4923  162.3123 O.3     1  UNL1       -0.3759
     32 H         144.9018  138.7503  161.5947 H       1  UNL1        0.2107
     33 C         145.1918  140.7556  163.2270 C.3     1  UNL1        0.4232
     34 F         146.0602  141.9686  163.0709 F       1  UNL1       -0.1674
     35 F         145.9005  140.4126  164.5039 F       1  UNL1       -0.1674
     36 F         144.4831  141.0985  161.9503 F       1  UNL1       -0.1674
     37 C         141.0563  140.0791  165.7807 C.3     1  UNL1        0.0492
     38 C         140.8494  140.0159  167.2650 C.ar    1  UNL1       -0.0202
     39 C         142.0043  139.7066  168.1708 C.ar    1  UNL1       -0.0042
     40 C         141.7973  139.6434  169.6551 C.ar    1  UNL1       -0.0003
     41 C         140.4354  139.8894  170.2336 C.ar    1  UNL1       -0.0000
     42 C         139.2805  140.1987  169.3278 C.ar    1  UNL1       -0.0003
     43 C         139.4875  140.2619  167.8435 C.ar    1  UNL1       -0.0042
@<TRIPOS>BOND
     1    10    11    1
     2    11    12    1
     3    11     9    1
     4     9     2    1
     5     2     3   ar
     6     3     4   ar
     7     4     1    1
     8     1    37    1
     9    37    38    1
    10    38    39   ar
    11    39    40   ar
    12    40    41   ar
    13    41    42   ar
    14    42    43   ar
    15     1    27    1
    16    27    29    1
    17    29    30    1
    18    30    31    1
    19    30    33    1
    20    33    34    1
    21    33    35    1
    22    33    36    1
    23     1    13    1
    24    13    14   ar
    25    14    15   ar
    26    15    16    1
    27    15    17   ar
    28    17    18   ar
    29    18    20    1
    30    20    21    1
    31    21    22    1
    32    21    23    1
    33    21    24    1
    34    24    25    1
    35    24    26    1
    36    18    19   ar
    37     4     5   ar
    38     5     6   ar
    39     6     7   ar
    40     7     8    1
    41     7     2   ar
    42    43    38   ar
    43    19    13   ar
    44    27    28    1
    45    31    32    1
@<TRIPOS>MOLECULE
*****
 43 45 0 0 0
SMALL
GASTEIGER

@<TRIPOS>ATOM
      1 C         141.4185  141.8736  165.1936 C.3     1  UNL1        0.0847
      2 C         138.6135  143.1538  162.6950 C.ar    1  UNL1        0.1653
      3 C         139.7472  142.3525  163.2629 C.ar    1  UNL1        0.0365
      4 C         140.2847  142.6749  164.6256 C.ar    1  UNL1       -0.0022
      5 C         139.6885  143.7986  165.4205 C.ar    1  UNL1       -0.0002
      6 C         138.5548  144.6000  164.8526 C.ar    1  UNL1        0.0325
      7 C         138.0173  144.2775  163.4899 C.ar    1  UNL1        0.1738
      8 F         136.8835  145.0789  162.9219 F       1  UNL1       -0.2010
      9 O         138.0759  142.8314  161.3322 O.3     1  UNL1       -0.4769
     10 C         137.6660  140.2721  161.1537 C.3     1  UNL1        0.0472
     11 C         138.3845  141.5075  160.6982 C.3     1  UNL1        0.1662
     12 C         139.4116  141.4190  159.6085 C.3     1  UNL1        0.0472
     13 C         140.5837  140.6304  165.1062 C.ar    1  UNL1       -0.0001
     14 C         139.4383  140.4281  166.0534 C.ar    1  UNL1        0.0271
     15 C         138.6034  139.1849  165.9660 C.ar    1  UNL1        0.1429
     16 F         137.4189  138.6695  166.7283 F       1  UNL1       -0.2041
     17 C         138.9140  138.1441  164.9315 C.ar    1  UNL1        0.0667
     18 C         140.0594  138.3465  163.9843 C.ar    1  UNL1        0.1461
     19 C         140.8942  139.5896  164.0717 C.ar    1  UNL1        0.0345
     20 O         140.3700  137.3056  162.9498 O.3     1  UNL1       -0.4263
     21 C         141.2603  137.6426  161.7906 C.3     1  UNL1        0.4723
     22 F         142.4675  137.3883  162.6438 F       1  UNL1       -0.1579
     23 F         140.0530  137.8968  160.9373 F       1  UNL1       -0.1579
     24 C         142.1506  137.9795  160.6314 C.3     1  UNL1        0.4202
     25 F         143.6411  137.9166  160.7874 F       1  UNL1       -0.1876
     26 F         141.5504  138.3795  159.3161 F       1  UNL1       -0.1876
     27 N         142.2533  143.1167  165.2810 N.3     1  UNL1       -0.2906
     28 H         142.5716  143.1903  166.2472 H       1  UNL1        0.1238
     29 C         143.4670  143.2677  164.4125 C.3     1  UNL1        0.1075
     30 C         143.4480  144.2235  163.2567 C.3     1  UNL1        0.2219
     31 O         144.6555  144.3615  162.3776 O.3     1  UNL1       -0.3759
     32 H         144.4774  145.0156  161.6839 H       1  UNL1        0.2107
     33 C         142.2214  145.0414  162.9799 C.3     1  UNL1        0.4232
     34 F         140.9948  145.8592  162.7030 F       1  UNL1       -0.1674
     35 F         142.5152  145.8890  164.1821 F       1  UNL1       -0.1674
     36 F         141.9276  144.1939  161.7777 F       1  UNL1       -0.1674
     37 C         142.5522  141.0723  165.7615 C.3     1  UNL1        0.0492
     38 C         142.6749  140.8939  167.2459 C.ar    1  UNL1       -0.0202
     39 C         142.4579  139.5424  167.8593 C.ar    1  UNL1       -0.0042
     40 C         142.5805  139.3641  169.3436 C.ar    1  UNL1       -0.0003
     41 C         142.9202  140.5372  170.2144 C.ar    1  UNL1       -0.0000
     42 C         143.1372  141.8887  169.6010 C.ar    1  UNL1       -0.0003
     43 C         143.0145  142.0671  168.1167 C.ar    1  UNL1       -0.0042
@<TRIPOS>BOND
     1    10    11    1
     2    11    12    1
     3    11     9    1
     4     9     2    1
     5     2     3   ar
     6     3     4   ar
     7     4     1    1
     8     1    37    1
     9    37    38    1
    10    38    39   ar
    11    39    40   ar
    12    40    41   ar
    13    41    42   ar
    14    42    43   ar
    15     1    27    1
    16    27    29    1
    17    29    30    1
    18    30    31    1
    19    30    33    1
    20    33    34    1
    21    33    35    1
    22    33    36    1
    23     1    13    1
    24    13    14   ar
    25    14    15   ar
    26    15    16    1
    27    15    17   ar
    28    17    18   ar
    29    18    20    1
    30    20    21    1
    31    21    22    1
    32    21    23    1
    33    21    24    1
    34    24    25    1
    35    24    26    1
    36    18    19   ar
    37     4     5   ar
    38     5     6   ar
    39     6     7   ar
    40     7     8    1
    41     7     2   ar
    42    43    38   ar
    43    19    13   ar
    44    27    28    1
    45    31    32    1
@<TRIPOS>MOLECULE
*****
 43 45 0 0 0
SMALL
GASTEIGER

@<TRIPOS>ATOM
      1 C         141.1870  141.1299  165.6463 C.3     1  UNL1        0.0847
      2 C         141.6403  138.3990  162.8026 C.ar    1  UNL1        0.1653
      3 C         140.9917  139.3124  163.8000 C.ar    1  UNL1        0.0365
      4 C         141.8356  140.2164  164.6487 C.ar    1  UNL1       -0.0022
      5 C         143.3282  140.2071  164.5000 C.ar    1  UNL1       -0.0002
      6 C         143.9768  139.2937  163.5025 C.ar    1  UNL1        0.0325
      7 C         143.1329  138.3897  162.6538 C.ar    1  UNL1        0.1738
      8 F         143.7815  137.4762  161.6563 F       1  UNL1       -0.2010
      9 O         140.7963  137.4949  161.9538 O.3     1  UNL1       -0.4769
     10 C         139.6212  138.5419  159.8867 C.3     1  UNL1        0.0472
     11 C         139.5584  138.0258  161.2937 C.3     1  UNL1        0.1662
     12 C         138.2577  138.0406  162.0407 C.3     1  UNL1        0.0472
     13 C         141.4424  142.2990  164.7418 C.ar    1  UNL1       -0.0001
     14 C         142.6848  143.1219  164.9124 C.ar    1  UNL1        0.0271
     15 C         142.9402  144.2910  164.0079 C.ar    1  UNL1        0.1429
     16 F         144.0435  145.3011  163.8970 F       1  UNL1       -0.2041
     17 C         141.9531  144.6372  162.9329 C.ar    1  UNL1        0.0667
     18 C         140.7106  143.8143  162.7623 C.ar    1  UNL1        0.1461
     19 C         140.4552  142.6452  163.6667 C.ar    1  UNL1        0.0345
     20 O         139.7234  144.1605  161.6872 O.3     1  UNL1       -0.4263
     21 C         139.0694  143.0709  160.8905 C.3     1  UNL1        0.4723
     22 F         137.8075  143.2500  161.6814 F       1  UNL1       -0.1579
     23 F         140.3313  142.8918  160.0995 F       1  UNL1       -0.1579
     24 C         138.4153  141.9813  160.0937 C.3     1  UNL1        0.4202
     25 F         138.6457  141.8923  158.6142 F       1  UNL1       -0.1876
     26 F         137.5307  140.9805  160.7764 F       1  UNL1       -0.1876
     27 N         140.9317  139.9608  166.5507 N.3     1  UNL1       -0.2906
     28 H         141.5884  140.0402  167.3270 H       1  UNL1        0.1238
     29 C         139.5722  139.7609  167.1523 C.3     1  UNL1        0.1075
     30 C         138.4487  139.2351  166.3089 C.3     1  UNL1        0.2219
     31 O         137.8315  140.1055  165.2546 O.3     1  UNL1       -0.3759
     32 H         137.1248  139.6165  164.8047 H       1  UNL1        0.2107
     33 C         137.9424  137.8389  166.5198 C.3     1  UNL1        0.4232
     34 F         137.4361  136.4428  166.7307 F       1  UNL1       -0.1674
     35 F         138.8923  137.3364  165.4733 F       1  UNL1       -0.1674
     36 F         136.9926  138.3415  167.5663 F       1  UNL1       -0.1674
     37 C         140.5384  142.0433  166.6438 C.3     1  UNL1        0.0492
     38 C         141.2611  142.4094  167.9062 C.ar    1  UNL1       -0.0202
     39 C         142.6874  141.9888  168.1029 C.ar    1  UNL1       -0.0042
     40 C         143.4100  142.3549  169.3653 C.ar    1  UNL1       -0.0003
     41 C         142.7063  143.1417  170.4311 C.ar    1  UNL1       -0.0000
     42 C         141.2800  143.5624  170.2344 C.ar    1  UNL1       -0.0003
     43 C         140.5574  143.1962  168.9719 C.ar    1  UNL1       -0.0042
@<TRIPOS>BOND
     1    10    11    1
     2    11    12    1
     3    11     9    1
     4     9     2    1
     5     2     3   ar
     6     3     4   ar
     7     4     1    1
     8     1    37    1
     9    37    38    1
    10    38    39   ar
    11    39    40   ar
    12    40    41   ar
    13    41    42   ar
    14    42    43   ar
    15     1    27    1
    16    27    29    1
    17    29    30    1
    18    30    31    1
    19    30    33    1
    20    33    34    1
    21    33    35    1
    22    33    36    1
    23     1    13    1
    24    13    14   ar
    25    14    15   ar
    26    15    16    1
    27    15    17   ar
    28    17    18   ar
    29    18    20    1
    30    20    21    1
    31    21    22    1
    32    21    23    1
    33    21    24    1
    34    24    25    1
    35    24    26    1
    36    18    19   ar
    37     4     5   ar
    38     5     6   ar
    39     6     7   ar
    40     7     8    1
    41     7     2   ar
    42    43    38   ar
    43    19    13   ar
    44    27    28    1
    45    31    32    1
@<TRIPOS>MOLECULE
*****
 43 45 0 0 0
SMALL
GASTEIGER

@<TRIPOS>ATOM
      1 C         140.2948  141.1704  165.1039 C.3     1  UNL1        0.0847
      2 C         139.8061  143.7861  162.1597 C.ar    1  UNL1        0.1653
      3 C         140.1436  142.5195  162.8887 C.ar    1  UNL1        0.0365
      4 C         139.9572  142.4371  164.3748 C.ar    1  UNL1       -0.0022
      5 C         139.4334  143.6213  165.1318 C.ar    1  UNL1       -0.0002
      6 C         139.0958  144.8880  164.4028 C.ar    1  UNL1        0.0325
      7 C         139.2822  144.9704  162.9167 C.ar    1  UNL1        0.1738
      8 F         138.9446  146.2371  162.1875 F       1  UNL1       -0.2010
      9 O         139.9924  143.8686  160.6735 O.3     1  UNL1       -0.4769
     10 C         138.7037  141.9912  159.4228 C.3     1  UNL1        0.0472
     11 C         139.9992  142.6163  159.8479 C.3     1  UNL1        0.1662
     12 C         141.3017  141.9891  159.4474 C.3     1  UNL1        0.0472
     13 C         141.7558  141.4422  164.9001 C.ar    1  UNL1       -0.0001
     14 C         142.4227  142.5578  165.6489 C.ar    1  UNL1        0.0271
     15 C         143.8837  142.8297  165.4450 C.ar    1  UNL1        0.1429
     16 F         144.8458  143.8322  166.0100 F       1  UNL1       -0.2041
     17 C         144.6778  141.9860  164.4923 C.ar    1  UNL1        0.0667
     18 C         144.0108  140.8705  163.7434 C.ar    1  UNL1        0.1461
     19 C         142.5499  140.5986  163.9473 C.ar    1  UNL1        0.0345
     20 O         144.8049  140.0268  162.7907 O.3     1  UNL1       -0.4263
     21 C         144.1667  139.5101  161.5354 C.3     1  UNL1        0.4723
     22 F         144.2639  140.8763  160.9237 F       1  UNL1       -0.1579
     23 F         144.0696  138.1439  162.1472 F       1  UNL1       -0.1579
     24 C         143.5285  138.9935  160.2801 C.3     1  UNL1        0.4202
     25 F         142.5591  137.8508  160.3471 F       1  UNL1       -0.1876
     26 F         143.8598  139.6196  158.9578 F       1  UNL1       -0.1876
     27 N         138.8338  140.8985  165.3078 N.3     1  UNL1       -0.2906
     28 H         138.3286  141.6903  164.9100 H       1  UNL1        0.1238
     29 C         138.2147  139.6579  164.7352 C.3     1  UNL1        0.1075
     30 C         138.2852  139.3969  163.2598 C.3     1  UNL1        0.2219
     31 O         137.3725  140.1321  162.3236 O.3     1  UNL1       -0.3759
     32 H         137.5467  139.8480  161.4126 H       1  UNL1        0.2107
     33 C         139.2685  138.4007  162.7205 C.3     1  UNL1        0.4232
     34 F         140.2518  137.4046  162.1812 F       1  UNL1       -0.1674
     35 F         138.6484  137.3297  163.5681 F       1  UNL1       -0.1674
     36 F         139.8886  139.4717  161.8729 F       1  UNL1       -0.1674
     37 C         140.6323  139.9037  165.8331 C.3     1  UNL1        0.0492
     38 C         140.8487  139.9275  167.3172 C.ar    1  UNL1       -0.0202
     39 C         142.2013  139.6110  167.8831 C.ar    1  UNL1       -0.0042
     40 C         142.4176  139.6348  169.3672 C.ar    1  UNL1       -0.0003
     41 C         141.2814  139.9751  170.2854 C.ar    1  UNL1       -0.0000
     42 C         139.9288  140.2915  169.7195 C.ar    1  UNL1       -0.0003
     43 C         139.7124  140.2677  168.2354 C.ar    1  UNL1       -0.0042
@<TRIPOS>BOND
     1    10    11    1
     2    11    12    1
     3    11     9    1
     4     9     2    1
     5     2     3   ar
     6     3     4   ar
     7     4     1    1
     8     1    37    1
     9    37    38    1
    10    38    39   ar
    11    39    40   ar
    12    40    41   ar
    13    41    42   ar
    14    42    43   ar
    15     1    27    1
    16    27    29    1
    17    29    30    1
    18    30    31    1
    19    30    33    1
    20    33    34    1
    21    33    35    1
    22    33    36    1
    23     1    13    1
    24    13    14   ar
    25    14    15   ar
    26    15    16    1
    27    15    17   ar
    28    17    18   ar
    29    18    20    1
    30    20    21    1
    31    21    22    1
    32    21    23    1
    33    21    24    1
    34    24    25    1
    35    24    26    1
    36    18    19   ar
    37     4     5   ar
    38     5     6   ar
    39     6     7   ar
    40     7     8    1
    41     7     2   ar
    42    43    38   ar
    43    19    13   ar
    44    27    28    1
    45    31    32    1
@<TRIPOS>MOLECULE
*****
 43 45 0 0 0
SMALL
GASTEIGER

@<TRIPOS>ATOM
      1 C         141.7537  141.8908  165.5049 C.3     1  UNL1        0.0847
      2 C         139.3552  143.3286  162.6889 C.ar    1  UNL1        0.1653
      3 C         140.4405  142.5392  163.3590 C.ar    1  UNL1        0.0365
      4 C         140.6684  142.6802  164.8348 C.ar    1  UNL1       -0.0022
      5 C         139.8110  143.6105  165.6406 C.ar    1  UNL1       -0.0002
      6 C         138.7257  144.3998  164.9706 C.ar    1  UNL1        0.0325
      7 C         138.4978  144.2589  163.4948 C.ar    1  UNL1        0.1738
      8 F         137.4124  145.0483  162.8246 F       1  UNL1       -0.2010
      9 O         139.1273  143.1876  161.2130 O.3     1  UNL1       -0.4769
     10 C         139.9576  143.6228  158.7900 C.3     1  UNL1        0.0472
     11 C         139.9576  143.9796  160.2469 C.3     1  UNL1        0.1662
     12 C         140.7879  145.1284  160.7378 C.3     1  UNL1        0.0472
     13 C         140.9424  140.6393  165.3449 C.ar    1  UNL1       -0.0001
     14 C         139.7004  140.4411  166.1622 C.ar    1  UNL1        0.0271
     15 C         138.8890  139.1896  166.0022 C.ar    1  UNL1        0.1429
     16 F         137.6307  138.6753  166.6363 F       1  UNL1       -0.2041
     17 C         139.3198  138.1364  165.0248 C.ar    1  UNL1        0.0667
     18 C         140.5618  138.3346  164.2075 C.ar    1  UNL1        0.1461
     19 C         141.3731  139.5861  164.3675 C.ar    1  UNL1        0.0345
     20 O         140.9925  137.2814  163.2302 O.3     1  UNL1       -0.4263
     21 C         141.6311  137.6786  161.9324 C.3     1  UNL1        0.4723
     22 F         142.9839  137.6092  162.5768 F       1  UNL1       -0.1579
     23 F         140.2783  137.7480  161.2880 F       1  UNL1       -0.1579
     24 C         142.2697  138.0759  160.6346 C.3     1  UNL1        0.4202
     25 F         141.4408  138.1670  159.3877 F       1  UNL1       -0.1876
     26 F         143.7373  138.3821  160.5836 F       1  UNL1       -0.1876
     27 N         142.5651  143.1422  165.6649 N.3     1  UNL1       -0.2906
     28 H         142.6239  143.3290  166.6659 H       1  UNL1        0.1238
     29 C         143.9653  143.2017  165.1303 C.3     1  UNL1        0.1075
     30 C         144.2086  143.1097  163.6530 C.3     1  UNL1        0.2219
     31 O         143.9767  144.3063  162.7787 O.3     1  UNL1       -0.3759
     32 H         144.1797  144.0783  161.8580 H       1  UNL1        0.2107
     33 C         144.6839  141.8211  163.0500 C.3     1  UNL1        0.4232
     34 F         145.1592  140.5325  162.4470 F       1  UNL1       -0.1674
     35 F         143.3571  141.6492  162.3716 F       1  UNL1       -0.1674
     36 F         146.0106  141.9930  163.7283 F       1  UNL1       -0.1674
     37 C         142.8391  141.1015  166.1750 C.3     1  UNL1        0.0492
     38 C         142.7748  140.8406  167.6508 C.ar    1  UNL1       -0.0202
     39 C         142.5944  139.4404  168.1577 C.ar    1  UNL1       -0.0042
     40 C         142.5302  139.1796  169.6334 C.ar    1  UNL1       -0.0003
     41 C         142.6462  140.3189  170.6022 C.ar    1  UNL1       -0.0000
     42 C         142.8265  141.7191  170.0952 C.ar    1  UNL1       -0.0003
     43 C         142.8908  141.9799  168.6195 C.ar    1  UNL1       -0.0042
@<TRIPOS>BOND
     1    10    11    1
     2    11    12    1
     3    11     9    1
     4     9     2    1
     5     2     3   ar
     6     3     4   ar
     7     4     1    1
     8     1    37    1
     9    37    38    1
    10    38    39   ar
    11    39    40   ar
    12    40    41   ar
    13    41    42   ar
    14    42    43   ar
    15     1    27    1
    16    27    29    1
    17    29    30    1
    18    30    31    1
    19    30    33    1
    20    33    34    1
    21    33    35    1
    22    33    36    1
    23     1    13    1
    24    13    14   ar
    25    14    15   ar
    26    15    16    1
    27    15    17   ar
    28    17    18   ar
    29    18    20    1
    30    20    21    1
    31    21    22    1
    32    21    23    1
    33    21    24    1
    34    24    25    1
    35    24    26    1
    36    18    19   ar
    37     4     5   ar
    38     5     6   ar
    39     6     7   ar
    40     7     8    1
    41     7     2   ar
    42    43    38   ar
    43    19    13   ar
    44    27    28    1
    45    31    32    1
@<TRIPOS>MOLECULE
*****
 43 45 0 0 0
SMALL
GASTEIGER

@<TRIPOS>ATOM
      1 C         141.1707  141.0081  166.5444 C.3     1  UNL1        0.0847
      2 C         144.2404  140.5929  164.0636 C.ar    1  UNL1        0.1653
      3 C         142.9963  140.2852  164.8430 C.ar    1  UNL1        0.0365
      4 C         142.4148  141.3157  165.7649 C.ar    1  UNL1       -0.0022
      5 C         143.0774  142.6539  165.9073 C.ar    1  UNL1       -0.0002
      6 C         144.3214  142.9616  165.1278 C.ar    1  UNL1        0.0325
      7 C         144.9029  141.9311  164.2060 C.ar    1  UNL1        0.1738
      8 F         146.1471  142.2388  163.4265 F       1  UNL1       -0.2010
      9 O         144.8220  139.5624  163.1416 O.3     1  UNL1       -0.4769
     10 C         143.8310  140.4327  160.9032 C.3     1  UNL1        0.0472
     11 C         144.1757  139.2927  161.8151 C.3     1  UNL1        0.1662
     12 C         143.8742  137.8830  161.4005 C.3     1  UNL1        0.0472
     13 C         140.4072  141.9995  165.7173 C.ar    1  UNL1       -0.0001
     14 C         139.9061  143.2684  166.3408 C.ar    1  UNL1        0.0271
     15 C         139.1426  144.2599  165.5137 C.ar    1  UNL1        0.1429
     16 F         138.5131  145.5909  165.8005 F       1  UNL1       -0.2041
     17 C         138.8803  143.9825  164.0631 C.ar    1  UNL1        0.0667
     18 C         139.3815  142.7136  163.4396 C.ar    1  UNL1        0.1461
     19 C         140.1449  141.7222  164.2667 C.ar    1  UNL1        0.0345
     20 O         139.1191  142.4363  161.9889 O.3     1  UNL1       -0.4263
     21 C         138.4018  141.1831  161.5828 C.3     1  UNL1        0.4723
     22 F         139.5848  140.7738  160.7564 F       1  UNL1       -0.1579
     23 F         137.2187  141.5926  162.4091 F       1  UNL1       -0.1579
     24 C         137.6844  139.9300  161.1766 C.3     1  UNL1        0.4202
     25 F         137.0758  139.8237  159.8097 F       1  UNL1       -0.1876
     26 F         137.5756  138.7831  162.1373 F       1  UNL1       -0.1876
     27 N         141.9341  140.0166  167.3714 N.3     1  UNL1       -0.2906
     28 H         142.5675  139.5298  166.7372 H       1  UNL1        0.1238
     29 C         142.7600  140.4862  168.5323 C.3     1  UNL1        0.1075
     30 C         142.0888  141.0092  169.7675 C.3     1  UNL1        0.2219
     31 O         141.7344  140.0710  170.8829 O.3     1  UNL1       -0.3759
     32 H         141.3102  140.5672  171.6003 H       1  UNL1        0.2107
     33 C         141.7718  142.4704  169.8873 C.3     1  UNL1        0.4232
     34 F         141.4548  143.9316  170.0071 F       1  UNL1       -0.1674
     35 F         140.5037  142.1356  170.6154 F       1  UNL1       -0.1674
     36 F         143.0398  142.8051  169.1593 F       1  UNL1       -0.1674
     37 C         139.9266  140.7004  167.3239 C.3     1  UNL1        0.0492
     38 C         139.1267  139.4720  167.0056 C.ar    1  UNL1       -0.0202
     39 C         139.4935  138.6233  165.8245 C.ar    1  UNL1       -0.0042
     40 C         138.6936  137.3949  165.5063 C.ar    1  UNL1       -0.0003
     41 C         137.5269  137.0153  166.3693 C.ar    1  UNL1       -0.0000
     42 C         137.1601  137.8640  167.5504 C.ar    1  UNL1       -0.0003
     43 C         137.9600  139.0923  167.8686 C.ar    1  UNL1       -0.0042
@<TRIPOS>BOND
     1    10    11    1
     2    11    12    1
     3    11     9    1
     4     9     2    1
     5     2     3   ar
     6     3     4   ar
     7     4     1    1
     8     1    37    1
     9    37    38    1
    10    38    39   ar
    11    39    40   ar
    12    40    41   ar
    13    41    42   ar
    14    42    43   ar
    15     1    27    1
    16    27    29    1
    17    29    30    1
    18    30    31    1
    19    30    33    1
    20    33    34    1
    21    33    35    1
    22    33    36    1
    23     1    13    1
    24    13    14   ar
    25    14    15   ar
    26    15    16    1
    27    15    17   ar
    28    17    18   ar
    29    18    20    1
    30    20    21    1
    31    21    22    1
    32    21    23    1
    33    21    24    1
    34    24    25    1
    35    24    26    1
    36    18    19   ar
    37     4     5   ar
    38     5     6   ar
    39     6     7   ar
    40     7     8    1
    41     7     2   ar
    42    43    38   ar
    43    19    13   ar
    44    27    28    1
    45    31    32    1
@<TRIPOS>MOLECULE
*****
 43 45 0 0 0
SMALL
GASTEIGER

@<TRIPOS>ATOM
      1 C         141.0305  140.8084  164.7288 C.3     1  UNL1        0.0847
      2 C         139.3624  139.7739  168.1781 C.ar    1  UNL1        0.1653
      3 C         140.3406  140.3337  167.1883 C.ar    1  UNL1        0.0365
      4 C         140.0523  140.2486  165.7187 C.ar    1  UNL1       -0.0022
      5 C         138.7858  139.6039  165.2390 C.ar    1  UNL1       -0.0002
      6 C         137.8076  139.0441  166.2288 C.ar    1  UNL1        0.0325
      7 C         138.0959  139.1291  167.6983 C.ar    1  UNL1        0.1738
      8 F         137.1177  138.5693  168.6882 F       1  UNL1       -0.2010
      9 O         139.6508  139.8589  169.6477 O.3     1  UNL1       -0.4769
     10 C         141.3534  141.4475  170.7997 C.3     1  UNL1        0.0472
     11 C         141.0443  140.1449  170.1233 C.3     1  UNL1        0.1662
     12 C         142.1288  139.1282  169.9223 C.3     1  UNL1        0.0472
     13 C         140.0547  141.8920  164.3772 C.ar    1  UNL1       -0.0001
     14 C         139.7358  142.9665  165.3740 C.ar    1  UNL1        0.0271
     15 C         138.7599  144.0501  165.0223 C.ar    1  UNL1        0.1429
     16 F         138.2224  145.2453  165.7519 F       1  UNL1       -0.2041
     17 C         138.1030  144.0591  163.6738 C.ar    1  UNL1        0.0667
     18 C         138.4219  142.9845  162.6770 C.ar    1  UNL1        0.1461
     19 C         139.3978  141.9010  163.0287 C.ar    1  UNL1        0.0345
     20 O         137.7650  142.9935  161.3285 O.3     1  UNL1       -0.4263
     21 C         138.4964  142.4562  160.1343 C.3     1  UNL1        0.4723
     22 F         139.2684  143.7380  160.0304 F       1  UNL1       -0.1579
     23 F         137.7244  141.1743  160.2382 F       1  UNL1       -0.1579
     24 C         139.2279  141.9188  158.9401 C.3     1  UNL1        0.4202
     25 F         138.6582  140.7661  158.1678 F       1  UNL1       -0.1876
     26 F         140.5292  142.5343  158.5181 F       1  UNL1       -0.1876
     27 N         142.0063  139.7249  165.0805 N.3     1  UNL1       -0.2906
     28 H         141.4684  138.9721  165.5098 H       1  UNL1        0.1238
     29 C         142.8494  139.0983  164.0096 C.3     1  UNL1        0.1075
     30 C         142.2549  138.0718  163.0916 C.3     1  UNL1        0.2219
     31 O         143.0521  137.5503  161.9330 O.3     1  UNL1       -0.3759
     32 H         142.5248  136.8987  161.4448 H       1  UNL1        0.2107
     33 C         140.8631  137.5667  163.3323 C.3     1  UNL1        0.4232
     34 F         139.4714  137.0616  163.5730 F       1  UNL1       -0.1674
     35 F         140.3381  138.5227  162.3025 F       1  UNL1       -0.1674
     36 F         141.3881  136.6107  164.3621 F       1  UNL1       -0.1674
     37 C         142.0087  141.3681  163.7390 C.3     1  UNL1        0.0492
     38 C         142.7513  142.6334  164.0517 C.ar    1  UNL1       -0.0202
     39 C         142.5440  143.8536  163.2044 C.ar    1  UNL1       -0.0042
     40 C         143.2866  145.1188  163.5171 C.ar    1  UNL1       -0.0003
     41 C         144.2364  145.1638  164.6772 C.ar    1  UNL1       -0.0000
     42 C         144.4436  143.9436  165.5246 C.ar    1  UNL1       -0.0003
     43 C         143.7011  142.6784  165.2118 C.ar    1  UNL1       -0.0042
@<TRIPOS>BOND
     1    10    11    1
     2    11    12    1
     3    11     9    1
     4     9     2    1
     5     2     3   ar
     6     3     4   ar
     7     4     1    1
     8     1    37    1
     9    37    38    1
    10    38    39   ar
    11    39    40   ar
    12    40    41   ar
    13    41    42   ar
    14    42    43   ar
    15     1    27    1
    16    27    29    1
    17    29    30    1
    18    30    31    1
    19    30    33    1
    20    33    34    1
    21    33    35    1
    22    33    36    1
    23     1    13    1
    24    13    14   ar
    25    14    15   ar
    26    15    16    1
    27    15    17   ar
    28    17    18   ar
    29    18    20    1
    30    20    21    1
    31    21    22    1
    32    21    23    1
    33    21    24    1
    34    24    25    1
    35    24    26    1
    36    18    19   ar
    37     4     5   ar
    38     5     6   ar
    39     6     7   ar
    40     7     8    1
    41     7     2   ar
    42    43    38   ar
    43    19    13   ar
    44    27    28    1
    45    31    32    1
@<TRIPOS>MOLECULE
*****
 43 45 0 0 0
SMALL
GASTEIGER

@<TRIPOS>ATOM
      1 C         140.5733  141.1129  165.9883 C.3     1  UNL1        0.0847
      2 C         140.8896  139.6235  162.3234 C.ar    1  UNL1        0.1653
      3 C         140.4313  140.4673  163.4757 C.ar    1  UNL1        0.0365
      4 C         141.0316  140.2690  164.8359 C.ar    1  UNL1       -0.0022
      5 C         142.0902  139.2269  165.0438 C.ar    1  UNL1       -0.0002
      6 C         142.5485  138.3830  163.8915 C.ar    1  UNL1        0.0325
      7 C         141.9482  138.5813  162.5313 C.ar    1  UNL1        0.1738
      8 F         142.4065  137.7375  161.3789 F       1  UNL1       -0.2010
      9 O         140.2893  139.8218  160.9631 O.3     1  UNL1       -0.4769
     10 C         138.7383  141.8476  160.4725 C.3     1  UNL1        0.0472
     11 C         138.9121  140.4008  160.8282 C.3     1  UNL1        0.1662
     12 C         137.7087  139.5330  161.0491 C.3     1  UNL1        0.0472
     13 C         140.7826  142.3497  165.1659 C.ar    1  UNL1       -0.0001
     14 C         139.6429  143.2964  164.9318 C.ar    1  UNL1        0.0271
     15 C         139.8522  144.5333  164.1093 C.ar    1  UNL1        0.1429
     16 F         138.9640  145.6652  163.6850 F       1  UNL1       -0.2041
     17 C         141.2012  144.8234  163.5210 C.ar    1  UNL1        0.0667
     18 C         142.3408  143.8767  163.7552 C.ar    1  UNL1        0.1461
     19 C         142.1316  142.6399  164.5776 C.ar    1  UNL1        0.0345
     20 O         143.6899  144.1669  163.1669 O.3     1  UNL1       -0.4263
     21 C         144.2956  143.2181  162.1756 C.3     1  UNL1        0.4723
     22 F         143.2817  143.6388  161.1534 F       1  UNL1       -0.1579
     23 F         145.3096  142.7974  163.1978 F       1  UNL1       -0.1579
     24 C         144.9013  142.2693  161.1842 C.3     1  UNL1        0.4202
     25 F         145.6222  142.8010  159.9810 F       1  UNL1       -0.1876
     26 F         144.7862  140.7888  161.3960 F       1  UNL1       -0.1876
     27 N         140.3640  139.8761  166.8107 N.3     1  UNL1       -0.2906
     28 H         141.0233  139.9239  167.5875 H       1  UNL1        0.1238
     29 C         139.0164  139.5887  167.4036 C.3     1  UNL1        0.1075
     30 C         138.1056  138.5931  166.7486 C.3     1  UNL1        0.2219
     31 O         136.9929  137.9644  167.5337 O.3     1  UNL1       -0.3759
     32 H         136.5035  137.3493  166.9654 H       1  UNL1        0.2107
     33 C         138.3076  138.2261  165.3082 C.3     1  UNL1        0.4232
     34 F         138.5096  137.8590  163.8679 F       1  UNL1       -0.1674
     35 F         137.7747  139.5652  164.8922 F       1  UNL1       -0.1674
     36 F         138.8405  136.8871  165.7241 F       1  UNL1       -0.1674
     37 C         140.1150  141.9567  167.1407 C.3     1  UNL1        0.0492
     38 C         141.0832  142.3423  168.2196 C.ar    1  UNL1       -0.0202
     39 C         142.4930  141.8318  168.1797 C.ar    1  UNL1       -0.0042
     40 C         143.4611  142.2174  169.2586 C.ar    1  UNL1       -0.0003
     41 C         143.0193  143.1135  170.3775 C.ar    1  UNL1       -0.0000
     42 C         141.6094  143.6240  170.4174 C.ar    1  UNL1       -0.0003
     43 C         140.6414  143.2384  169.3385 C.ar    1  UNL1       -0.0042
@<TRIPOS>BOND
     1    10    11    1
     2    11    12    1
     3    11     9    1
     4     9     2    1
     5     2     3   ar
     6     3     4   ar
     7     4     1    1
     8     1    37    1
     9    37    38    1
    10    38    39   ar
    11    39    40   ar
    12    40    41   ar
    13    41    42   ar
    14    42    43   ar
    15     1    27    1
    16    27    29    1
    17    29    30    1
    18    30    31    1
    19    30    33    1
    20    33    34    1
    21    33    35    1
    22    33    36    1
    23     1    13    1
    24    13    14   ar
    25    14    15   ar
    26    15    16    1
    27    15    17   ar
    28    17    18   ar
    29    18    20    1
    30    20    21    1
    31    21    22    1
    32    21    23    1
    33    21    24    1
    34    24    25    1
    35    24    26    1
    36    18    19   ar
    37     4     5   ar
    38     5     6   ar
    39     6     7   ar
    40     7     8    1
    41     7     2   ar
    42    43    38   ar
    43    19    13   ar
    44    27    28    1
    45    31    32    1
@<TRIPOS>MOLECULE
*****
 43 45 0 0 0
SMALL
GASTEIGER

@<TRIPOS>ATOM
      1 C         141.7100  141.3223  165.0809 C.3     1  UNL1        0.0847
      2 C         142.1687  141.2636  169.0224 C.ar    1  UNL1        0.1653
      3 C         141.8110  141.7347  167.6440 C.ar    1  UNL1        0.0365
      4 C         142.0677  140.8512  166.4594 C.ar    1  UNL1       -0.0022
      5 C         142.6823  139.4967  166.6531 C.ar    1  UNL1       -0.0002
      6 C         143.0401  139.0256  168.0315 C.ar    1  UNL1        0.0325
      7 C         142.7833  139.9091  169.2162 C.ar    1  UNL1        0.1738
      8 F         143.1411  139.4381  170.5947 F       1  UNL1       -0.2010
      9 O         141.9120  142.1472  170.2072 O.3     1  UNL1       -0.4769
     10 C         140.5408  144.3539  170.1885 C.3     1  UNL1        0.0472
     11 C         140.6002  142.8626  170.3389 C.3     1  UNL1        0.1662
     12 C         139.3478  142.0868  170.6210 C.3     1  UNL1        0.0472
     13 C         140.5956  140.3197  165.0274 C.ar    1  UNL1       -0.0001
     14 C         139.6032  140.2408  166.1495 C.ar    1  UNL1        0.0271
     15 C         138.4888  139.2382  166.0961 C.ar    1  UNL1        0.1429
     16 F         137.3532  138.8926  167.0131 F       1  UNL1       -0.2041
     17 C         138.3667  138.3145  164.9206 C.ar    1  UNL1        0.0667
     18 C         139.3591  138.3933  163.7985 C.ar    1  UNL1        0.1461
     19 C         140.4735  139.3959  163.8519 C.ar    1  UNL1        0.0345
     20 O         139.2370  137.4696  162.6230 O.3     1  UNL1       -0.4263
     21 C         139.3006  138.0180  161.2283 C.3     1  UNL1        0.4723
     22 F         137.8355  138.3347  161.2860 F       1  UNL1       -0.1579
     23 F         140.7657  137.7013  161.1706 F       1  UNL1       -0.1579
     24 C         139.3641  138.5665  159.8337 C.3     1  UNL1        0.4202
     25 F         138.2949  139.4979  159.3445 F       1  UNL1       -0.1876
     26 F         140.4970  138.1836  158.9280 F       1  UNL1       -0.1876
     27 N         142.8244  142.3248  165.1343 N.3     1  UNL1       -0.2906
     28 H         143.3779  142.1060  165.9626 H       1  UNL1        0.1238
     29 C         143.7860  142.4392  163.9887 C.3     1  UNL1        0.1075
     30 C         144.8645  141.4122  163.8095 C.3     1  UNL1        0.2219
     31 O         146.3032  141.7960  163.9913 O.3     1  UNL1       -0.3759
     32 H         146.8662  141.0207  163.8403 H       1  UNL1        0.2107
     33 C         144.5044  140.0015  163.4485 C.3     1  UNL1        0.4232
     34 F         144.1444  138.5908  163.0876 F       1  UNL1       -0.1674
     35 F         143.7617  140.4993  162.2440 F       1  UNL1       -0.1674
     36 F         145.2471  139.5038  164.6529 F       1  UNL1       -0.1674
     37 C         141.3523  141.7933  163.7024 C.3     1  UNL1        0.0492
     38 C         140.1309  142.6385  163.4920 C.ar    1  UNL1       -0.0202
     39 C         139.7873  143.7179  164.4752 C.ar    1  UNL1       -0.0042
     40 C         138.5661  144.5629  164.2648 C.ar    1  UNL1       -0.0003
     41 C         137.6884  144.3286  163.0711 C.ar    1  UNL1       -0.0000
     42 C         138.0320  143.2492  162.0879 C.ar    1  UNL1       -0.0003
     43 C         139.2533  142.4041  162.2984 C.ar    1  UNL1       -0.0042
@<TRIPOS>BOND
     1    10    11    1
     2    11    12    1
     3    11     9    1
     4     9     2    1
     5     2     3   ar
     6     3     4   ar
     7     4     1    1
     8     1    37    1
     9    37    38    1
    10    38    39   ar
    11    39    40   ar
    12    40    41   ar
    13    41    42   ar
    14    42    43   ar
    15     1    27    1
    16    27    29    1
    17    29    30    1
    18    30    31    1
    19    30    33    1
    20    33    34    1
    21    33    35    1
    22    33    36    1
    23     1    13    1
    24    13    14   ar
    25    14    15   ar
    26    15    16    1
    27    15    17   ar
    28    17    18   ar
    29    18    20    1
    30    20    21    1
    31    21    22    1
    32    21    23    1
    33    21    24    1
    34    24    25    1
    35    24    26    1
    36    18    19   ar
    37     4     5   ar
    38     5     6   ar
    39     6     7   ar
    40     7     8    1
    41     7     2   ar
    42    43    38   ar
    43    19    13   ar
    44    27    28    1
    45    31    32    1
