@<TRIPOS>MOLECULE
*****
 32 36 0 0 0
SMALL
GASTEIGER

@<TRIPOS>ATOM
      1 C         144.5735  141.2980  154.7816 C.3     1  UNL1        0.0826
      2 C         144.0218  140.0638  155.4318 C.2     1  UNL1        0.1745
      3 C         144.5347  138.7122  155.0315 C.2     1  UNL1        0.0890
      4 C         143.9831  137.4781  155.6816 C.2     1  UNL1        0.2352
      5 N         144.2907  136.0220  155.4942 N.2     1  UNL1       -0.0340
      6 C         143.4164  135.2396  156.4288 C.2     1  UNL1        0.3712
      7 N         142.5684  136.2121  157.1938 N.2     1  UNL1       -0.0428
      8 C         142.9187  137.5956  156.7320 C.3     1  UNL1        0.3824
      9 C         142.4059  138.9472  157.1322 C.2     1  UNL1        0.3573
     10 N         142.9575  140.1813  156.4821 N.2     1  UNL1       -0.0438
     11 C         143.3939  133.7467  156.5731 C.ar    1  UNL1        0.0925
     12 C         144.4124  133.0611  157.4348 C.ar    1  UNL1        0.0375
     13 C         144.3899  131.5682  157.5791 C.ar    1  UNL1        0.1426
     14 F         145.4084  130.8826  158.4408 F       1  UNL1       -0.2041
     15 C         143.3490  130.7609  156.8616 C.ar    1  UNL1        0.0593
     16 C         142.3305  131.4465  155.9999 C.ar    1  UNL1        0.1426
     17 F         141.2895  130.6393  155.2824 F       1  UNL1       -0.2041
     18 C         142.3530  132.9394  155.8556 C.ar    1  UNL1        0.0375
     19 N         141.3415  139.0647  158.1826 N.pl3   1  UNL1       -0.1901
     20 C         139.9542  139.4884  157.8005 C.3     1  UNL1        0.2022
     21 C         138.8899  139.6059  158.8509 C.3     1  UNL1        0.0523
     22 C         139.2128  139.2998  160.2834 C.3     1  UNL1        0.0242
     23 C         140.6001  138.8761  160.6655 C.3     1  UNL1        0.0523
     24 C         141.6644  138.7586  159.6152 C.3     1  UNL1        0.2022
     25 C         138.1485  139.4173  161.3338 C.3     1  UNL1        0.0724
     26 N         138.0833  140.6387  162.2022 N.3     1  UNL1       -0.2703
     27 C         138.0993  140.4988  163.6955 C.3     1  UNL1        0.0897
     28 C         138.0341  141.7201  164.5639 C.3     1  UNL1        0.0897
     29 N         137.9528  143.0813  163.9390 N.3     1  UNL1       -0.2691
     30 C         137.8876  144.3026  164.8074 C.3     1  UNL1        0.0897
     31 C         137.9367  143.2212  162.4456 C.3     1  UNL1        0.0897
     32 C         138.0020  141.9998  161.5772 C.3     1  UNL1        0.0897
@<TRIPOS>BOND
     1     1     2    1
     2     2     3    2
     3     3     4    1
     4     4     5    2
     5     5     6    1
     6     6    11    1
     7    11    12   ar
     8    12    13   ar
     9    13    14    1
    10    13    15   ar
    11    15    16   ar
    12    16    17    1
    13    16    18   ar
    14     6     7    2
    15     7     8    1
    16     8     9    1
    17     9    19    1
    18    19    20    1
    19    20    21    1
    20    21    22    1
    21    22    25    1
    22    25    26    1
    23    26    27    1
    24    27    28    1
    25    28    29    1
    26    29    30    1
    27    29    31    1
    28    31    32    1
    29    22    23    1
    30    23    24    1
    31     9    10    2
    32    10     2    1
    33     8     4    1
    34    24    19    1
    35    18    11   ar
    36    32    26    1
@<TRIPOS>MOLECULE
*****
 32 36 0 0 0
SMALL
GASTEIGER

@<TRIPOS>ATOM
      1 C         144.5419  141.2430  155.7852 C.3     1  UNL1        0.0826
      2 C         144.0204  139.9009  156.2059 C.2     1  UNL1        0.1745
      3 C         144.3034  138.6898  155.3671 C.2     1  UNL1        0.0890
      4 C         143.7819  137.3478  155.7878 C.2     1  UNL1        0.2352
      5 N         143.8995  135.9864  155.1691 N.2     1  UNL1       -0.0340
      6 C         143.1679  135.0140  156.0461 C.2     1  UNL1        0.3712
      7 N         142.5981  135.7743  157.2068 N.2     1  UNL1       -0.0428
      8 C         142.9777  137.2167  157.0472 C.3     1  UNL1        0.3824
      9 C         142.6948  138.4278  157.8859 C.2     1  UNL1        0.3573
     10 N         143.2162  139.7698  157.4652 N.2     1  UNL1       -0.0438
     11 C         143.0301  133.5399  155.8047 C.ar    1  UNL1        0.0925
     12 C         144.2396  132.6545  155.8609 C.ar    1  UNL1        0.0375
     13 C         144.1018  131.1805  155.6195 C.ar    1  UNL1        0.1426
     14 F         145.3113  130.2950  155.6756 F       1  UNL1       -0.2041
     15 C         142.7546  130.5918  155.3221 C.ar    1  UNL1        0.0593
     16 C         141.5451  131.4772  155.2660 C.ar    1  UNL1        0.1426
     17 F         140.1978  130.8887  154.9685 F       1  UNL1       -0.2041
     18 C         141.6829  132.9513  155.5073 C.ar    1  UNL1        0.0375
     19 N         141.8905  138.2967  159.1452 N.pl3   1  UNL1       -0.1901
     20 C         140.4150  138.5660  159.1243 C.3     1  UNL1        0.2022
     21 C         139.6108  138.4350  160.3837 C.3     1  UNL1        0.0523
     22 C         140.2820  138.0346  161.6640 C.3     1  UNL1        0.0242
     23 C         141.7576  137.7654  161.6849 C.3     1  UNL1        0.0523
     24 C         142.5618  137.8964  160.4256 C.3     1  UNL1        0.2022
     25 C         139.4778  137.9036  162.9233 C.3     1  UNL1        0.0724
     26 N         139.6891  138.8688  164.0520 N.3     1  UNL1       -0.2703
     27 C         138.8938  140.1392  164.1112 C.3     1  UNL1        0.0897
     28 C         139.1050  141.1044  165.2398 C.3     1  UNL1        0.0897
     29 N         140.1114  140.7991  166.3093 N.3     1  UNL1       -0.2691
     30 C         140.3226  141.7643  167.4379 C.3     1  UNL1        0.0897
     31 C         140.9067  139.5287  166.2502 C.3     1  UNL1        0.0897
     32 C         140.6955  138.5635  165.1215 C.3     1  UNL1        0.0897
@<TRIPOS>BOND
     1     1     2    1
     2     2     3    2
     3     3     4    1
     4     4     5    2
     5     5     6    1
     6     6    11    1
     7    11    12   ar
     8    12    13   ar
     9    13    14    1
    10    13    15   ar
    11    15    16   ar
    12    16    17    1
    13    16    18   ar
    14     6     7    2
    15     7     8    1
    16     8     9    1
    17     9    19    1
    18    19    20    1
    19    20    21    1
    20    21    22    1
    21    22    25    1
    22    25    26    1
    23    26    27    1
    24    27    28    1
    25    28    29    1
    26    29    30    1
    27    29    31    1
    28    31    32    1
    29    22    23    1
    30    23    24    1
    31     9    10    2
    32    10     2    1
    33     8     4    1
    34    24    19    1
    35    18    11   ar
    36    32    26    1
@<TRIPOS>MOLECULE
*****
 32 36 0 0 0
SMALL
GASTEIGER

@<TRIPOS>ATOM
      1 C         145.3474  140.9256  155.4510 C.3     1  UNL1        0.0826
      2 C         144.5906  139.6947  155.8539 C.2     1  UNL1        0.1745
      3 C         144.9058  138.3764  155.2111 C.2     1  UNL1        0.0890
      4 C         144.1490  137.1456  155.6141 C.2     1  UNL1        0.2352
      5 N         144.2378  135.7190  155.1593 N.2     1  UNL1       -0.0340
      6 C         143.2207  134.9247  155.9239 C.2     1  UNL1        0.3712
      7 N         142.5034  135.8604  156.8512 N.2     1  UNL1       -0.0428
      8 C         143.0771  137.2330  156.6598 C.3     1  UNL1        0.3824
      9 C         142.7620  138.5512  157.3025 C.2     1  UNL1        0.3573
     10 N         143.5188  139.7820  156.8995 N.2     1  UNL1       -0.0438
     11 C         142.9657  133.4530  155.7854 C.ar    1  UNL1        0.0925
     12 C         141.6089  132.9622  155.3753 C.ar    1  UNL1        0.0375
     13 C         141.3540  131.4905  155.2369 C.ar    1  UNL1        0.1426
     14 F         139.9972  130.9997  154.8268 F       1  UNL1       -0.2041
     15 C         142.4558  130.5096  155.5086 C.ar    1  UNL1        0.0593
     16 C         143.8126  131.0004  155.9187 C.ar    1  UNL1        0.1426
     17 F         144.9145  130.0196  156.1904 F       1  UNL1       -0.2041
     18 C         144.0675  132.4721  156.0571 C.ar    1  UNL1        0.0375
     19 N         141.6901  138.6386  158.3482 N.pl3   1  UNL1       -0.1901
     20 C         142.0227  138.3754  159.7869 C.3     1  UNL1        0.2022
     21 C         140.9507  138.4628  160.8326 C.3     1  UNL1        0.0523
     22 C         139.5462  138.8133  160.4395 C.3     1  UNL1        0.0242
     23 C         139.2137  139.0765  159.0006 C.3     1  UNL1        0.0523
     24 C         140.2856  138.9891  157.9550 C.3     1  UNL1        0.2022
     25 C         138.4744  138.9007  161.4850 C.3     1  UNL1        0.0724
     26 N         138.2937  140.1661  162.2700 N.3     1  UNL1       -0.2703
     27 C         138.0007  141.4541  161.5593 C.3     1  UNL1        0.0897
     28 C         137.8200  142.7195  162.3442 C.3     1  UNL1        0.0897
     29 N         137.9322  142.6969  163.8399 N.3     1  UNL1       -0.2691
     30 C         137.7515  143.9623  164.6248 C.3     1  UNL1        0.0897
     31 C         138.2252  141.4089  164.5506 C.3     1  UNL1        0.0897
     32 C         138.4059  140.1435  163.7656 C.3     1  UNL1        0.0897
@<TRIPOS>BOND
     1     1     2    1
     2     2     3    2
     3     3     4    1
     4     4     5    2
     5     5     6    1
     6     6    11    1
     7    11    12   ar
     8    12    13   ar
     9    13    14    1
    10    13    15   ar
    11    15    16   ar
    12    16    17    1
    13    16    18   ar
    14     6     7    2
    15     7     8    1
    16     8     9    1
    17     9    19    1
    18    19    20    1
    19    20    21    1
    20    21    22    1
    21    22    25    1
    22    25    26    1
    23    26    27    1
    24    27    28    1
    25    28    29    1
    26    29    30    1
    27    29    31    1
    28    31    32    1
    29    22    23    1
    30    23    24    1
    31     9    10    2
    32    10     2    1
    33     8     4    1
    34    24    19    1
    35    18    11   ar
    36    32    26    1
@<TRIPOS>MOLECULE
*****
 32 36 0 0 0
SMALL
GASTEIGER

@<TRIPOS>ATOM
      1 C         139.4499  141.1455  156.4638 C.3     1  UNL1        0.0826
      2 C         140.3224  140.0128  156.9177 C.2     1  UNL1        0.1745
      3 C         140.5160  138.8152  156.0354 C.2     1  UNL1        0.0890
      4 C         141.3884  137.6826  156.4893 C.2     1  UNL1        0.2352
      5 N         141.7640  136.3830  155.8412 N.2     1  UNL1       -0.0340
      6 C         142.6749  135.6448  156.7768 C.2     1  UNL1        0.3712
      7 N         142.8623  136.4881  158.0031 N.2     1  UNL1       -0.0428
      8 C         142.0671  137.7475  157.8254 C.3     1  UNL1        0.3824
      9 C         141.8735  138.9451  158.7076 C.2     1  UNL1        0.3573
     10 N         141.0011  140.0777  158.2537 N.2     1  UNL1       -0.0438
     11 C         143.2904  134.2994  156.5295 C.ar    1  UNL1        0.0925
     12 C         143.0653  133.6007  155.2214 C.ar    1  UNL1        0.0375
     13 C         143.6809  132.2553  154.9742 C.ar    1  UNL1        0.1426
     14 F         143.4557  131.5565  153.6661 F       1  UNL1       -0.2041
     15 C         144.5215  131.6087  156.0349 C.ar    1  UNL1        0.0593
     16 C         144.7467  132.3075  157.3430 C.ar    1  UNL1        0.1426
     17 F         145.5873  131.6610  158.4038 F       1  UNL1       -0.2041
     18 C         144.1311  133.6528  157.5902 C.ar    1  UNL1        0.0375
     19 N         142.5522  139.0100  160.0437 N.pl3   1  UNL1       -0.1901
     20 C         143.6387  140.0156  160.2849 C.3     1  UNL1        0.2022
     21 C         144.3174  140.0805  161.6211 C.3     1  UNL1        0.0523
     22 C         143.9096  139.1398  162.7159 C.3     1  UNL1        0.0242
     23 C         142.8230  138.1342  162.4747 C.3     1  UNL1        0.0523
     24 C         142.1443  138.0693  161.1387 C.3     1  UNL1        0.2022
     25 C         144.5883  139.2047  164.0520 C.3     1  UNL1        0.0724
     26 N         143.8434  139.7208  165.2474 N.3     1  UNL1       -0.2703
     27 C         143.5062  141.1789  165.3488 C.3     1  UNL1        0.0897
     28 C         142.7613  141.6950  166.5441 C.3     1  UNL1        0.0897
     29 N         142.3537  140.7530  167.6380 N.3     1  UNL1       -0.2691
     30 C         141.6088  141.2692  168.8333 C.3     1  UNL1        0.0897
     31 C         142.6909  139.2950  167.5366 C.3     1  UNL1        0.0897
     32 C         143.4357  138.7789  166.3412 C.3     1  UNL1        0.0897
@<TRIPOS>BOND
     1     1     2    1
     2     2     3    2
     3     3     4    1
     4     4     5    2
     5     5     6    1
     6     6    11    1
     7    11    12   ar
     8    12    13   ar
     9    13    14    1
    10    13    15   ar
    11    15    16   ar
    12    16    17    1
    13    16    18   ar
    14     6     7    2
    15     7     8    1
    16     8     9    1
    17     9    19    1
    18    19    20    1
    19    20    21    1
    20    21    22    1
    21    22    25    1
    22    25    26    1
    23    26    27    1
    24    27    28    1
    25    28    29    1
    26    29    30    1
    27    29    31    1
    28    31    32    1
    29    22    23    1
    30    23    24    1
    31     9    10    2
    32    10     2    1
    33     8     4    1
    34    24    19    1
    35    18    11   ar
    36    32    26    1
@<TRIPOS>MOLECULE
*****
 32 36 0 0 0
SMALL
GASTEIGER

@<TRIPOS>ATOM
      1 C         139.3925  140.6080  155.9907 C.3     1  UNL1        0.0826
      2 C         140.3088  139.5428  156.5160 C.2     1  UNL1        0.1745
      3 C         140.5337  138.2893  155.7234 C.2     1  UNL1        0.0890
      4 C         141.4499  137.2241  156.2487 C.2     1  UNL1        0.2352
      5 N         141.8629  135.8928  155.6946 N.2     1  UNL1       -0.0340
      6 C         142.8094  135.2583  156.6701 C.2     1  UNL1        0.3712
      7 N         142.9814  136.1974  157.8270 N.2     1  UNL1       -0.0428
      8 C         142.1412  137.4124  157.5665 C.3     1  UNL1        0.3824
      9 C         141.9162  138.6659  158.3591 C.2     1  UNL1        0.3573
     10 N         141.0000  139.7311  157.8338 N.2     1  UNL1       -0.0438
     11 C         143.4683  133.9196  156.5158 C.ar    1  UNL1        0.0925
     12 C         144.3396  133.3816  157.6119 C.ar    1  UNL1        0.0375
     13 C         144.9984  132.0429  157.4575 C.ar    1  UNL1        0.1426
     14 F         145.8697  131.5050  158.5537 F       1  UNL1       -0.2041
     15 C         144.7860  131.2421  156.2071 C.ar    1  UNL1        0.0593
     16 C         143.9147  131.7801  155.1109 C.ar    1  UNL1        0.1426
     17 F         143.7023  130.9794  153.8605 F       1  UNL1       -0.2041
     18 C         143.2559  133.1188  155.2653 C.ar    1  UNL1        0.0375
     19 N         142.6075  138.8542  159.6769 N.pl3   1  UNL1       -0.1901
     20 C         142.4131  137.8519  160.7758 C.3     1  UNL1        0.2022
     21 C         143.1044  138.0403  162.0936 C.3     1  UNL1        0.0523
     22 C         143.9900  139.2309  162.3126 C.3     1  UNL1        0.0242
     23 C         144.1844  140.2333  161.2137 C.3     1  UNL1        0.0523
     24 C         143.4932  140.0449  159.8959 C.3     1  UNL1        0.2022
     25 C         144.6812  139.4192  163.6304 C.3     1  UNL1        0.0724
     26 N         143.8879  139.7960  164.8465 N.3     1  UNL1       -0.2703
     27 C         143.5628  138.7594  165.8807 C.3     1  UNL1        0.0897
     28 C         142.7695  139.1361  167.0967 C.3     1  UNL1        0.0897
     29 N         142.3013  140.5495  167.2785 N.3     1  UNL1       -0.2691
     30 C         141.5079  140.9262  168.4945 C.3     1  UNL1        0.0897
     31 C         142.6263  141.5862  166.2443 C.3     1  UNL1        0.0897
     32 C         143.4197  141.2093  165.0282 C.3     1  UNL1        0.0897
@<TRIPOS>BOND
     1     1     2    1
     2     2     3    2
     3     3     4    1
     4     4     5    2
     5     5     6    1
     6     6    11    1
     7    11    12   ar
     8    12    13   ar
     9    13    14    1
    10    13    15   ar
    11    15    16   ar
    12    16    17    1
    13    16    18   ar
    14     6     7    2
    15     7     8    1
    16     8     9    1
    17     9    19    1
    18    19    20    1
    19    20    21    1
    20    21    22    1
    21    22    25    1
    22    25    26    1
    23    26    27    1
    24    27    28    1
    25    28    29    1
    26    29    30    1
    27    29    31    1
    28    31    32    1
    29    22    23    1
    30    23    24    1
    31     9    10    2
    32    10     2    1
    33     8     4    1
    34    24    19    1
    35    18    11   ar
    36    32    26    1
@<TRIPOS>MOLECULE
*****
 32 36 0 0 0
SMALL
GASTEIGER

@<TRIPOS>ATOM
      1 C         144.6154  142.6115  158.0117 C.3     1  UNL1        0.0826
      2 C         144.0161  141.2366  158.0367 C.2     1  UNL1        0.1745
      3 C         144.2832  140.2814  156.9113 C.2     1  UNL1        0.0890
      4 C         143.6839  138.9066  156.9364 C.2     1  UNL1        0.2352
      5 N         143.7692  137.7569  155.9767 N.2     1  UNL1       -0.0340
      6 C         142.9556  136.6267  156.5340 C.2     1  UNL1        0.3712
      7 N         142.3674  137.0778  157.8380 N.2     1  UNL1       -0.0428
      8 C         142.8176  138.4869  158.0867 C.3     1  UNL1        0.3824
      9 C         142.5505  139.4421  159.2120 C.2     1  UNL1        0.3573
     10 N         143.1498  140.8169  159.1870 N.2     1  UNL1       -0.0438
     11 C         142.7637  135.2815  155.8987 C.ar    1  UNL1        0.0925
     12 C         142.4525  135.1808  154.4348 C.ar    1  UNL1        0.0375
     13 C         142.2607  133.8355  153.7996 C.ar    1  UNL1        0.1426
     14 F         141.9494  133.7349  152.3357 F       1  UNL1       -0.2041
     15 C         142.3801  132.5909  154.6283 C.ar    1  UNL1        0.0593
     16 C         142.6913  132.6915  156.0921 C.ar    1  UNL1        0.1426
     17 F         142.8107  131.4470  156.9209 F       1  UNL1       -0.2041
     18 C         142.8831  134.0368  156.7273 C.ar    1  UNL1        0.0375
     19 N         141.6842  139.0224  160.3624 N.pl3   1  UNL1       -0.1901
     20 C         140.3228  139.6279  160.5360 C.3     1  UNL1        0.2022
     21 C         139.4565  139.2081  161.6864 C.3     1  UNL1        0.0523
     22 C         139.9515  138.1829  162.6632 C.3     1  UNL1        0.0242
     23 C         141.3129  137.5774  162.4895 C.3     1  UNL1        0.0523
     24 C         142.1792  137.9971  161.3392 C.3     1  UNL1        0.2022
     25 C         139.0852  137.7633  163.8135 C.3     1  UNL1        0.0724
     26 N         139.2096  138.4563  165.1380 N.3     1  UNL1       -0.2703
     27 C         138.0704  138.4201  166.1132 C.3     1  UNL1        0.0897
     28 C         138.1947  139.1131  167.4377 C.3     1  UNL1        0.0897
     29 N         139.4581  139.8423  167.7870 N.3     1  UNL1       -0.2691
     30 C         139.5824  140.5352  169.1115 C.3     1  UNL1        0.0897
     31 C         140.5973  139.8784  166.8118 C.3     1  UNL1        0.0897
     32 C         140.4730  139.1854  165.4873 C.3     1  UNL1        0.0897
@<TRIPOS>BOND
     1     1     2    1
     2     2     3    2
     3     3     4    1
     4     4     5    2
     5     5     6    1
     6     6    11    1
     7    11    12   ar
     8    12    13   ar
     9    13    14    1
    10    13    15   ar
    11    15    16   ar
    12    16    17    1
    13    16    18   ar
    14     6     7    2
    15     7     8    1
    16     8     9    1
    17     9    19    1
    18    19    20    1
    19    20    21    1
    20    21    22    1
    21    22    25    1
    22    25    26    1
    23    26    27    1
    24    27    28    1
    25    28    29    1
    26    29    30    1
    27    29    31    1
    28    31    32    1
    29    22    23    1
    30    23    24    1
    31     9    10    2
    32    10     2    1
    33     8     4    1
    34    24    19    1
    35    18    11   ar
    36    32    26    1
@<TRIPOS>MOLECULE
*****
 32 36 0 0 0
SMALL
GASTEIGER

@<TRIPOS>ATOM
      1 C         145.1872  141.9379  154.9856 C.3     1  UNL1        0.0826
      2 C         144.4732  140.7440  155.5469 C.2     1  UNL1        0.1745
      3 C         144.9103  139.3608  155.1651 C.2     1  UNL1        0.0890
      4 C         144.1963  138.1670  155.7264 C.2     1  UNL1        0.2352
      5 N         144.3999  136.6934  155.5335 N.2     1  UNL1       -0.0340
      6 C         143.3748  135.9721  156.3573 C.2     1  UNL1        0.3712
      7 N         142.5375  136.9999  157.0594 N.2     1  UNL1       -0.0428
      8 C         143.0453  138.3564  156.6694 C.3     1  UNL1        0.3824
      9 C         142.6083  139.7396  157.0512 C.2     1  UNL1        0.3573
     10 N         143.3223  140.9334  156.4899 N.2     1  UNL1       -0.0438
     11 C         143.2148  134.4843  156.4610 C.ar    1  UNL1        0.0925
     12 C         144.1453  133.6885  157.3276 C.ar    1  UNL1        0.0375
     13 C         143.9853  132.2006  157.4312 C.ar    1  UNL1        0.1426
     14 F         144.9158  131.4048  158.2977 F       1  UNL1       -0.2041
     15 C         142.8949  131.5085  156.6682 C.ar    1  UNL1        0.0593
     16 C         141.9645  132.3043  155.8016 C.ar    1  UNL1        0.1426
     17 F         140.8741  131.6123  155.0387 F       1  UNL1       -0.2041
     18 C         142.1245  133.7922  155.6981 C.ar    1  UNL1        0.0375
     19 N         141.4573  139.9290  157.9942 N.pl3   1  UNL1       -0.1901
     20 C         141.6963  140.4821  159.3679 C.3     1  UNL1        0.2022
     21 C         140.5452  140.6714  160.3109 C.3     1  UNL1        0.0523
     22 C         139.1552  140.3077  159.8803 C.3     1  UNL1        0.0242
     23 C         138.9162  139.7546  158.5066 C.3     1  UNL1        0.0523
     24 C         140.0671  139.5652  157.5636 C.3     1  UNL1        0.2022
     25 C         138.0042  140.4971  160.8232 C.3     1  UNL1        0.0724
     26 N         138.1580  140.1484  162.2741 N.3     1  UNL1       -0.2703
     27 C         137.9292  141.1939  163.3250 C.3     1  UNL1        0.0897
     28 C         138.0829  140.8452  164.7758 C.3     1  UNL1        0.0897
     29 N         138.4655  139.4510  165.1756 N.3     1  UNL1       -0.2691
     30 C         138.6193  139.1024  166.6264 C.3     1  UNL1        0.0897
     31 C         138.6943  138.4055  164.1247 C.3     1  UNL1        0.0897
     32 C         138.5405  138.7542  162.6739 C.3     1  UNL1        0.0897
@<TRIPOS>BOND
     1     1     2    1
     2     2     3    2
     3     3     4    1
     4     4     5    2
     5     5     6    1
     6     6    11    1
     7    11    12   ar
     8    12    13   ar
     9    13    14    1
    10    13    15   ar
    11    15    16   ar
    12    16    17    1
    13    16    18   ar
    14     6     7    2
    15     7     8    1
    16     8     9    1
    17     9    19    1
    18    19    20    1
    19    20    21    1
    20    21    22    1
    21    22    25    1
    22    25    26    1
    23    26    27    1
    24    27    28    1
    25    28    29    1
    26    29    30    1
    27    29    31    1
    28    31    32    1
    29    22    23    1
    30    23    24    1
    31     9    10    2
    32    10     2    1
    33     8     4    1
    34    24    19    1
    35    18    11   ar
    36    32    26    1
@<TRIPOS>MOLECULE
*****
 32 36 0 0 0
SMALL
GASTEIGER

@<TRIPOS>ATOM
      1 C         137.1843  142.5328  155.4206 C.3     1  UNL1        0.0826
      2 C         137.8068  141.5618  156.3797 C.2     1  UNL1        0.1745
      3 C         137.5356  141.6818  157.8501 C.2     1  UNL1        0.0890
      4 C         138.1581  140.7108  158.8091 C.2     1  UNL1        0.2352
      5 N         138.0748  140.5807  160.3012 N.2     1  UNL1       -0.0340
      6 C         138.9170  139.4093  160.7119 C.2     1  UNL1        0.3712
      7 N         139.5207  138.8155  159.4738 N.2     1  UNL1       -0.0428
      8 C         139.0516  139.6199  158.2978 C.3     1  UNL1        0.3824
      9 C         139.3228  139.5000  156.8274 C.2     1  UNL1        0.3573
     10 N         138.7003  140.4710  155.8683 N.2     1  UNL1       -0.0438
     11 C         139.1198  138.9180  162.1145 C.ar    1  UNL1        0.0925
     12 C         140.1508  137.8662  162.3991 C.ar    1  UNL1        0.0375
     13 C         140.3536  137.3749  163.8018 C.ar    1  UNL1        0.1426
     14 F         141.3845  136.3232  164.0863 F       1  UNL1       -0.2041
     15 C         139.5254  137.9353  164.9199 C.ar    1  UNL1        0.0593
     16 C         138.4945  138.9870  164.6354 C.ar    1  UNL1        0.1426
     17 F         137.6663  139.5474  165.7534 F       1  UNL1       -0.2041
     18 C         138.2917  139.4783  163.2327 C.ar    1  UNL1        0.0375
     19 N         140.2163  138.4091  156.3160 N.pl3   1  UNL1       -0.1901
     20 C         141.7062  138.5515  156.4158 C.3     1  UNL1        0.2022
     21 C         142.5997  137.4605  155.9044 C.3     1  UNL1        0.0523
     22 C         142.0034  136.2273  155.2932 C.3     1  UNL1        0.0242
     23 C         140.5135  136.0850  155.1934 C.3     1  UNL1        0.0523
     24 C         139.6200  137.1758  155.7048 C.3     1  UNL1        0.2022
     25 C         142.8969  135.1365  154.7818 C.3     1  UNL1        0.0724
     26 N         143.0577  133.8686  155.5672 N.3     1  UNL1       -0.2703
     27 C         142.3013  132.6369  155.1661 C.3     1  UNL1        0.0897
     28 C         142.4620  131.3691  155.9514 C.3     1  UNL1        0.0897
     29 N         143.3791  131.3329  157.1379 N.3     1  UNL1       -0.2691
     30 C         143.5398  130.0651  157.9232 C.3     1  UNL1        0.0897
     31 C         144.1354  132.5646  157.5391 C.3     1  UNL1        0.0897
     32 C         143.9746  133.8324  156.7537 C.3     1  UNL1        0.0897
@<TRIPOS>BOND
     1     1     2    1
     2     2     3    2
     3     3     4    1
     4     4     5    2
     5     5     6    1
     6     6    11    1
     7    11    12   ar
     8    12    13   ar
     9    13    14    1
    10    13    15   ar
    11    15    16   ar
    12    16    17    1
    13    16    18   ar
    14     6     7    2
    15     7     8    1
    16     8     9    1
    17     9    19    1
    18    19    20    1
    19    20    21    1
    20    21    22    1
    21    22    25    1
    22    25    26    1
    23    26    27    1
    24    27    28    1
    25    28    29    1
    26    29    30    1
    27    29    31    1
    28    31    32    1
    29    22    23    1
    30    23    24    1
    31     9    10    2
    32    10     2    1
    33     8     4    1
    34    24    19    1
    35    18    11   ar
    36    32    26    1
@<TRIPOS>MOLECULE
*****
 32 36 0 0 0
SMALL
GASTEIGER

@<TRIPOS>ATOM
      1 C         144.9877  141.2232  155.4198 C.3     1  UNL1        0.0826
      2 C         144.3165  140.2820  156.3757 C.2     1  UNL1        0.1745
      3 C         144.0884  140.6954  157.7995 C.2     1  UNL1        0.0890
      4 C         143.4172  139.7542  158.7554 C.2     1  UNL1        0.2352
      5 N         143.0603  139.8830  160.2066 N.2     1  UNL1       -0.0340
      6 C         142.3967  138.6080  160.6356 C.2     1  UNL1        0.3712
      7 N         142.3435  137.6912  159.4495 N.2     1  UNL1       -0.0428
      8 C         142.9742  138.3996  158.2875 C.3     1  UNL1        0.3824
      9 C         143.2023  137.9863  156.8637 C.2     1  UNL1        0.3573
     10 N         143.8735  138.9275  155.9079 N.2     1  UNL1       -0.0438
     11 C         141.8775  138.3032  162.0095 C.ar    1  UNL1        0.0925
     12 C         140.4370  137.9319  162.2015 C.ar    1  UNL1        0.0375
     13 C         139.9178  137.6272  163.5755 C.ar    1  UNL1        0.1426
     14 F         138.4773  137.2559  163.7676 F       1  UNL1       -0.2041
     15 C         140.8392  137.6937  164.7573 C.ar    1  UNL1        0.0593
     16 C         142.2798  138.0650  164.5652 C.ar    1  UNL1        0.1426
     17 F         143.2012  138.1315  165.7469 F       1  UNL1       -0.2041
     18 C         142.7989  138.3697  163.1913 C.ar    1  UNL1        0.0375
     19 N         142.7593  136.6317  156.3958 N.pl3   1  UNL1       -0.1901
     20 C         141.4710  136.4829  155.6420 C.3     1  UNL1        0.2022
     21 C         141.0280  135.1283  155.1741 C.3     1  UNL1        0.0523
     22 C         141.8733  133.9226  155.4600 C.3     1  UNL1        0.0242
     23 C         143.1616  134.0714  156.2138 C.3     1  UNL1        0.0523
     24 C         143.6046  135.4259  156.6817 C.3     1  UNL1        0.2022
     25 C         141.4303  132.5681  154.9921 C.3     1  UNL1        0.0724
     26 N         142.4165  131.4401  154.9193 N.3     1  UNL1       -0.2703
     27 C         143.2398  131.2426  153.6811 C.3     1  UNL1        0.0897
     28 C         144.2259  130.1147  153.6081 C.3     1  UNL1        0.0897
     29 N         144.3888  129.1843  154.7734 N.3     1  UNL1       -0.2691
     30 C         145.3750  128.0564  154.7005 C.3     1  UNL1        0.0897
     31 C         143.5656  129.3819  156.0117 C.3     1  UNL1        0.0897
     32 C         142.5794  130.5098  156.0845 C.3     1  UNL1        0.0897
@<TRIPOS>BOND
     1     1     2    1
     2     2     3    2
     3     3     4    1
     4     4     5    2
     5     5     6    1
     6     6    11    1
     7    11    12   ar
     8    12    13   ar
     9    13    14    1
    10    13    15   ar
    11    15    16   ar
    12    16    17    1
    13    16    18   ar
    14     6     7    2
    15     7     8    1
    16     8     9    1
    17     9    19    1
    18    19    20    1
    19    20    21    1
    20    21    22    1
    21    22    25    1
    22    25    26    1
    23    26    27    1
    24    27    28    1
    25    28    29    1
    26    29    30    1
    27    29    31    1
    28    31    32    1
    29    22    23    1
    30    23    24    1
    31     9    10    2
    32    10     2    1
    33     8     4    1
    34    24    19    1
    35    18    11   ar
    36    32    26    1
