@<TRIPOS>MOLECULE
*****
 30 33 0 0 0
SMALL
GASTEIGER

@<TRIPOS>ATOM
      1 C         140.0838  141.4846  161.2755 C.3     1  UNL1        0.0501
      2 C         140.6724  142.1950  162.4582 C.ar    1  UNL1        0.0391
      3 C         141.3982  143.5073  162.4270 C.ar    1  UNL1        0.0073
      4 C         141.8130  143.8411  163.8294 C.ar    1  UNL1        0.0157
      5 C         141.3435  142.7350  164.7273 C.ar    1  UNL1        0.0634
      6 N         140.6386  141.7177  163.8798 N.ar    1  UNL1       -0.3101
      7 C         140.0102  140.4462  164.3683 C.ar    1  UNL1        0.0638
      8 C         138.7021  140.4894  165.1010 C.ar    1  UNL1        0.0198
      9 C         138.0736  139.2180  165.5895 C.ar    1  UNL1        0.0311
     10 C         138.7534  137.9033  165.3452 C.ar    1  UNL1        0.1402
     11 F         138.1250  136.6319  165.8336 F       1  UNL1       -0.2042
     12 C         140.0615  137.8601  164.6124 C.ar    1  UNL1        0.0311
     13 C         140.6899  139.1316  164.1240 C.ar    1  UNL1        0.0198
     14 C         141.5438  142.6596  166.2120 C.ar    1  UNL1        0.0161
     15 C         140.3959  142.9317  167.1384 C.ar    1  UNL1        0.0014
     16 C         140.5962  142.8562  168.6230 C.ar    1  UNL1        0.0039
     17 C         141.9443  142.5086  169.1812 C.ar    1  UNL1        0.0714
     18 C         143.0922  142.2365  168.2548 C.ar    1  UNL1        0.0039
     19 C         142.8919  142.3119  166.7702 C.ar    1  UNL1        0.0014
     20 C         142.1445  142.4331  170.6659 C.3     1  UNL1        0.4186
     21 F         142.3448  142.3577  172.1505 F       1  UNL1       -0.1659
     22 F         141.2433  141.2356  170.7265 F       1  UNL1       -0.1659
     23 F         143.0458  143.6308  170.6052 F       1  UNL1       -0.1659
     24 C         141.6628  144.3397  161.2076 C.3     1  UNL1        0.1004
     25 N         142.5237  143.8006  160.1038 N.3     1  UNL1       -0.2646
     26 C         143.7297  142.9706  160.4305 C.3     1  UNL1        0.1049
     27 C         144.5905  142.4316  159.3268 C.3     1  UNL1        0.1595
     28 O         144.2454  142.7225  157.8963 O.3     1  UNL1       -0.3508
     29 C         143.0395  143.5525  157.5696 C.3     1  UNL1        0.1595
     30 C         142.1786  144.0916  158.6734 C.3     1  UNL1        0.1049
@<TRIPOS>BOND
     1     1     2    1
     2     2     3   ar
     3     3    24    1
     4    24    25    1
     5    25    26    1
     6    26    27    1
     7    27    28    1
     8    28    29    1
     9    29    30    1
    10     3     4   ar
    11     4     5   ar
    12     5    14    1
    13    14    15   ar
    14    15    16   ar
    15    16    17   ar
    16    17    20    1
    17    20    21    1
    18    20    22    1
    19    20    23    1
    20    17    18   ar
    21    18    19   ar
    22     5     6   ar
    23     6     7    1
    24     7     8   ar
    25     8     9   ar
    26     9    10   ar
    27    10    11    1
    28    10    12   ar
    29    12    13   ar
    30     6     2   ar
    31    13     7   ar
    32    30    25    1
    33    19    14   ar
@<TRIPOS>MOLECULE
*****
 30 33 0 0 0
SMALL
GASTEIGER

@<TRIPOS>ATOM
      1 C         140.0163  141.4700  161.3094 C.3     1  UNL1        0.0501
      2 C         140.6100  142.1844  162.4871 C.ar    1  UNL1        0.0391
      3 C         141.3302  143.4996  162.4492 C.ar    1  UNL1        0.0073
      4 C         141.7531  143.8370  163.8483 C.ar    1  UNL1        0.0157
      5 C         141.2942  142.7304  164.7509 C.ar    1  UNL1        0.0634
      6 N         140.5877  141.7090  163.9096 N.ar    1  UNL1       -0.3101
      7 C         139.9677  140.4357  164.4041 C.ar    1  UNL1        0.0638
      8 C         140.6132  139.1176  164.0943 C.ar    1  UNL1        0.0198
      9 C         139.9933  137.8442  164.5887 C.ar    1  UNL1        0.0311
     10 C         138.7279  137.8891  165.3930 C.ar    1  UNL1        0.1402
     11 F         138.1079  136.6158  165.8874 F       1  UNL1       -0.2042
     12 C         138.0824  139.2072  165.7027 C.ar    1  UNL1        0.0311
     13 C         138.7024  140.4805  165.2083 C.ar    1  UNL1        0.0198
     14 C         141.5048  142.6578  166.2342 C.ar    1  UNL1        0.0161
     15 C         140.3802  142.9926  167.1687 C.ar    1  UNL1        0.0014
     16 C         140.5908  142.9200  168.6520 C.ar    1  UNL1        0.0039
     17 C         141.9259  142.5127  169.2009 C.ar    1  UNL1        0.0714
     18 C         143.0505  142.1779  168.2665 C.ar    1  UNL1        0.0039
     19 C         142.8400  142.2504  166.7832 C.ar    1  UNL1        0.0014
     20 C         142.1365  142.4401  170.6843 C.3     1  UNL1        0.4186
     21 F         142.3470  142.3675  172.1677 F       1  UNL1       -0.1659
     22 F         142.9511  143.6985  170.6302 F       1  UNL1       -0.1659
     23 F         141.3219  141.1817  170.7384 F       1  UNL1       -0.1659
     24 C         141.5832  144.3313  161.2269 C.3     1  UNL1        0.1004
     25 N         142.4850  143.8178  160.1437 N.3     1  UNL1       -0.2646
     26 C         142.1761  144.1159  158.7065 C.3     1  UNL1        0.1049
     27 C         143.0779  143.6024  157.6235 C.3     1  UNL1        0.1595
     28 O         144.2886  142.7909  157.9776 O.3     1  UNL1       -0.3508
     29 C         144.5976  142.4928  159.4148 C.3     1  UNL1        0.1595
     30 C         143.6958  143.0063  160.4979 C.3     1  UNL1        0.1049
@<TRIPOS>BOND
     1     1     2    1
     2     2     3   ar
     3     3    24    1
     4    24    25    1
     5    25    26    1
     6    26    27    1
     7    27    28    1
     8    28    29    1
     9    29    30    1
    10     3     4   ar
    11     4     5   ar
    12     5    14    1
    13    14    15   ar
    14    15    16   ar
    15    16    17   ar
    16    17    20    1
    17    20    21    1
    18    20    22    1
    19    20    23    1
    20    17    18   ar
    21    18    19   ar
    22     5     6   ar
    23     6     7    1
    24     7     8   ar
    25     8     9   ar
    26     9    10   ar
    27    10    11    1
    28    10    12   ar
    29    12    13   ar
    30     6     2   ar
    31    13     7   ar
    32    30    25    1
    33    19    14   ar
@<TRIPOS>MOLECULE
*****
 30 33 0 0 0
SMALL
GASTEIGER

@<TRIPOS>ATOM
      1 C         139.8014  138.2641  158.0646 C.3     1  UNL1        0.0501
      2 C         139.4102  139.6072  158.6059 C.ar    1  UNL1        0.0391
      3 C         138.9100  140.7703  157.8016 C.ar    1  UNL1        0.0073
      4 C         138.6413  141.9050  158.7452 C.ar    1  UNL1        0.0157
      5 C         138.9755  141.4432  160.1326 C.ar    1  UNL1        0.0634
      6 N         139.4507  140.0230  160.0465 N.ar    1  UNL1       -0.3101
      7 C         139.8895  139.1687  161.1988 C.ar    1  UNL1        0.0638
      8 C         141.3504  139.0021  161.4954 C.ar    1  UNL1        0.0198
      9 C         141.7892  138.1479  162.6477 C.ar    1  UNL1        0.0311
     10 C         140.7669  137.4601  163.5033 C.ar    1  UNL1        0.1402
     11 F         141.2056  136.6058  164.6556 F       1  UNL1       -0.2042
     12 C         139.3060  137.6267  163.2067 C.ar    1  UNL1        0.0311
     13 C         138.8673  138.4810  162.0544 C.ar    1  UNL1        0.0198
     14 C         138.8555  142.2583  161.3861 C.ar    1  UNL1        0.0161
     15 C         139.7855  143.4111  161.6229 C.ar    1  UNL1        0.0014
     16 C         139.6655  144.2262  162.8764 C.ar    1  UNL1        0.0039
     17 C         138.6156  143.8886  163.8929 C.ar    1  UNL1        0.0714
     18 C         137.6855  142.7358  163.6561 C.ar    1  UNL1        0.0039
     19 C         137.8055  141.9207  162.4027 C.ar    1  UNL1        0.0014
     20 C         138.4956  144.7037  165.1464 C.3     1  UNL1        0.4186
     21 F         138.3756  145.5189  166.3998 F       1  UNL1       -0.1659
     22 F         139.9675  144.9892  165.1016 F       1  UNL1       -0.1659
     23 F         137.0236  144.4183  165.1912 F       1  UNL1       -0.1659
     24 C         138.7130  140.7945  156.3148 C.3     1  UNL1        0.1004
     25 N         137.3749  140.4516  155.7298 N.3     1  UNL1       -0.2646
     26 C         137.2893  139.5707  154.5188 C.3     1  UNL1        0.1049
     27 C         135.9513  139.2278  153.9339 C.3     1  UNL1        0.1595
     28 O         134.6990  139.7659  154.5600 O.3     1  UNL1       -0.3508
     29 C         134.7846  140.6468  155.7710 C.3     1  UNL1        0.1595
     30 C         136.1225  140.9897  156.3559 C.3     1  UNL1        0.1049
@<TRIPOS>BOND
     1     1     2    1
     2     2     3   ar
     3     3    24    1
     4    24    25    1
     5    25    26    1
     6    26    27    1
     7    27    28    1
     8    28    29    1
     9    29    30    1
    10     3     4   ar
    11     4     5   ar
    12     5    14    1
    13    14    15   ar
    14    15    16   ar
    15    16    17   ar
    16    17    20    1
    17    20    21    1
    18    20    22    1
    19    20    23    1
    20    17    18   ar
    21    18    19   ar
    22     5     6   ar
    23     6     7    1
    24     7     8   ar
    25     8     9   ar
    26     9    10   ar
    27    10    11    1
    28    10    12   ar
    29    12    13   ar
    30     6     2   ar
    31    13     7   ar
    32    30    25    1
    33    19    14   ar
@<TRIPOS>MOLECULE
*****
 30 33 0 0 0
SMALL
GASTEIGER

@<TRIPOS>ATOM
      1 C         143.7230  140.0246  158.5151 C.3     1  UNL1        0.0501
      2 C         142.5109  139.4782  159.2096 C.ar    1  UNL1        0.0391
      3 C         141.4017  138.7002  158.5659 C.ar    1  UNL1        0.0073
      4 C         140.4005  138.3551  159.6283 C.ar    1  UNL1        0.0157
      5 C         140.8909  138.9199  160.9285 C.ar    1  UNL1        0.0634
      6 N         142.1952  139.6141  160.6697 N.ar    1  UNL1       -0.3101
      7 C         143.0362  140.3201  161.6916 C.ar    1  UNL1        0.0638
      8 C         142.8868  141.7988  161.8938 C.ar    1  UNL1        0.0198
      9 C         143.7278  142.5049  162.9157 C.ar    1  UNL1        0.0311
     10 C         144.7182  141.7321  163.7354 C.ar    1  UNL1        0.1402
     11 F         145.5592  142.4381  164.7574 F       1  UNL1       -0.2042
     12 C         144.8676  140.2533  163.5332 C.ar    1  UNL1        0.0311
     13 C         144.0266  139.5473  162.5113 C.ar    1  UNL1        0.0198
     14 C         140.1986  138.8099  162.2545 C.ar    1  UNL1        0.0161
     15 C         140.5443  137.6899  163.1905 C.ar    1  UNL1        0.0014
     16 C         139.8519  137.5799  164.5166 C.ar    1  UNL1        0.0039
     17 C         138.8139  138.5899  164.9067 C.ar    1  UNL1        0.0714
     18 C         138.4682  139.7099  163.9708 C.ar    1  UNL1        0.0039
     19 C         139.1605  139.8200  162.6447 C.ar    1  UNL1        0.0014
     20 C         138.1216  138.4799  166.2328 C.3     1  UNL1        0.4186
     21 F         137.4293  138.3698  167.5590 F       1  UNL1       -0.1659
     22 F         138.1436  139.9736  166.3682 F       1  UNL1       -0.1659
     23 F         138.0996  136.9861  166.0975 F       1  UNL1       -0.1659
     24 C         141.3098  138.3319  157.1148 C.3     1  UNL1        0.1004
     25 N         141.7058  136.9573  156.6633 N.3     1  UNL1       -0.2646
     26 C         140.8936  136.2470  155.6214 C.3     1  UNL1        0.1049
     27 C         141.2896  134.8725  155.1700 C.3     1  UNL1        0.1595
     28 O         142.4978  134.2082  155.7606 O.3     1  UNL1       -0.3508
     29 C         143.3101  134.9184  156.8025 C.3     1  UNL1        0.1595
     30 C         142.9141  136.2930  157.2539 C.3     1  UNL1        0.1049
@<TRIPOS>BOND
     1     1     2    1
     2     2     3   ar
     3     3    24    1
     4    24    25    1
     5    25    26    1
     6    26    27    1
     7    27    28    1
     8    28    29    1
     9    29    30    1
    10     3     4   ar
    11     4     5   ar
    12     5    14    1
    13    14    15   ar
    14    15    16   ar
    15    16    17   ar
    16    17    20    1
    17    20    21    1
    18    20    22    1
    19    20    23    1
    20    17    18   ar
    21    18    19   ar
    22     5     6   ar
    23     6     7    1
    24     7     8   ar
    25     8     9   ar
    26     9    10   ar
    27    10    11    1
    28    10    12   ar
    29    12    13   ar
    30     6     2   ar
    31    13     7   ar
    32    30    25    1
    33    19    14   ar
@<TRIPOS>MOLECULE
*****
 30 33 0 0 0
SMALL
GASTEIGER

@<TRIPOS>ATOM
      1 C         141.5503  142.4981  160.6703 C.3     1  UNL1        0.0501
      2 C         142.2743  141.8939  161.8369 C.ar    1  UNL1        0.0391
      3 C         143.5563  141.1178  161.7729 C.ar    1  UNL1        0.0073
      4 C         143.9177  140.7040  163.1687 C.ar    1  UNL1        0.0157
      5 C         142.8591  141.2244  164.0953 C.ar    1  UNL1        0.0634
      6 N         141.8434  141.9598  163.2721 N.ar    1  UNL1       -0.3101
      7 C         140.6128  142.6415  163.7928 C.ar    1  UNL1        0.0638
      8 C         139.3337  141.8716  163.9382 C.ar    1  UNL1        0.0198
      9 C         138.1031  142.5532  164.4589 C.ar    1  UNL1        0.0311
     10 C         138.1517  144.0047  164.8342 C.ar    1  UNL1        0.1402
     11 F         136.9211  144.6864  165.3550 F       1  UNL1       -0.2042
     12 C         139.4308  144.7746  164.6888 C.ar    1  UNL1        0.0311
     13 C         140.6614  144.0929  164.1681 C.ar    1  UNL1        0.0198
     14 C         142.8225  141.0415  165.5836 C.ar    1  UNL1        0.0161
     15 C         142.5739  139.6819  166.1663 C.ar    1  UNL1        0.0014
     16 C         142.5373  139.4990  167.6546 C.ar    1  UNL1        0.0039
     17 C         142.7494  140.6756  168.5603 C.ar    1  UNL1        0.0714
     18 C         142.9981  142.0353  167.9777 C.ar    1  UNL1        0.0039
     19 C         143.0347  142.2182  166.4893 C.ar    1  UNL1        0.0014
     20 C         142.7129  140.4927  170.0486 C.3     1  UNL1        0.4186
     21 F         142.6763  140.3097  171.5370 F       1  UNL1       -0.1659
     22 F         143.8339  141.4782  170.1973 F       1  UNL1       -0.1659
     23 F         141.5918  139.5072  169.9000 F       1  UNL1       -0.1659
     24 C         144.3394  140.8096  160.5313 C.3     1  UNL1        0.1004
     25 N         143.7364  139.9530  159.4576 N.3     1  UNL1       -0.2646
     26 C         143.1223  138.6306  159.8096 C.3     1  UNL1        0.1049
     27 C         142.5194  137.7741  158.7359 C.3     1  UNL1        0.1595
     28 O         142.5305  138.2401  157.3101 O.3     1  UNL1       -0.3508
     29 C         143.1446  139.5626  156.9581 C.3     1  UNL1        0.1595
     30 C         143.7476  140.4190  158.0318 C.3     1  UNL1        0.1049
@<TRIPOS>BOND
     1     1     2    1
     2     2     3   ar
     3     3    24    1
     4    24    25    1
     5    25    26    1
     6    26    27    1
     7    27    28    1
     8    28    29    1
     9    29    30    1
    10     3     4   ar
    11     4     5   ar
    12     5    14    1
    13    14    15   ar
    14    15    16   ar
    15    16    17   ar
    16    17    20    1
    17    20    21    1
    18    20    22    1
    19    20    23    1
    20    17    18   ar
    21    18    19   ar
    22     5     6   ar
    23     6     7    1
    24     7     8   ar
    25     8     9   ar
    26     9    10   ar
    27    10    11    1
    28    10    12   ar
    29    12    13   ar
    30     6     2   ar
    31    13     7   ar
    32    30    25    1
    33    19    14   ar
@<TRIPOS>MOLECULE
*****
 30 33 0 0 0
SMALL
GASTEIGER

@<TRIPOS>ATOM
      1 C         140.8235  139.9256  166.9351 C.3     1  UNL1        0.0501
      2 C         141.3201  141.0798  166.1159 C.ar    1  UNL1        0.0391
      3 C         142.3088  142.1162  166.5611 C.ar    1  UNL1        0.0073
      4 C         142.5149  143.0772  165.4279 C.ar    1  UNL1        0.0157
      5 C         141.6535  142.6347  164.2824 C.ar    1  UNL1        0.0634
      6 N         140.9151  141.4002  164.7076 N.ar    1  UNL1       -0.3101
      7 C         139.9424  140.6227  163.8713 C.ar    1  UNL1        0.0638
      8 C         140.3097  139.2587  163.3669 C.ar    1  UNL1        0.0198
      9 C         139.3371  138.4811  162.5306 C.ar    1  UNL1        0.0311
     10 C         137.9970  139.0677  162.1987 C.ar    1  UNL1        0.1402
     11 F         137.0243  138.2901  161.3625 F       1  UNL1       -0.2042
     12 C         137.6296  140.4317  162.7031 C.ar    1  UNL1        0.0311
     13 C         138.6023  141.2092  163.5394 C.ar    1  UNL1        0.0198
     14 C         141.5490  143.3084  162.9463 C.ar    1  UNL1        0.0161
     15 C         140.7401  144.5631  162.8002 C.ar    1  UNL1        0.0014
     16 C         140.6355  145.2367  161.4641 C.ar    1  UNL1        0.0039
     17 C         141.3398  144.6558  160.2741 C.ar    1  UNL1        0.0714
     18 C         142.1488  143.4011  160.4201 C.ar    1  UNL1        0.0039
     19 C         142.2533  142.7274  161.7562 C.ar    1  UNL1        0.0014
     20 C         141.2353  145.3294  158.9380 C.3     1  UNL1        0.4186
     21 F         141.1306  146.0032  157.6018 F       1  UNL1       -0.1659
     22 F         142.5225  144.6871  158.5133 F       1  UNL1       -0.1659
     23 F         139.9479  145.9719  159.3626 F       1  UNL1       -0.1659
     24 C         142.9745  142.1804  167.9037 C.3     1  UNL1        0.1004
     25 N         142.1457  142.1579  169.1537 N.3     1  UNL1       -0.2646
     26 C         142.5158  141.2424  170.2827 C.3     1  UNL1        0.1049
     27 C         141.6869  141.2200  171.5327 C.3     1  UNL1        0.1595
     28 O         140.4879  142.1131  171.6536 O.3     1  UNL1       -0.3508
     29 C         140.1178  143.0287  170.5246 C.3     1  UNL1        0.1595
     30 C         140.9467  143.0511  169.2747 C.3     1  UNL1        0.1049
@<TRIPOS>BOND
     1     1     2    1
     2     2     3   ar
     3     3    24    1
     4    24    25    1
     5    25    26    1
     6    26    27    1
     7    27    28    1
     8    28    29    1
     9    29    30    1
    10     3     4   ar
    11     4     5   ar
    12     5    14    1
    13    14    15   ar
    14    15    16   ar
    15    16    17   ar
    16    17    20    1
    17    20    21    1
    18    20    22    1
    19    20    23    1
    20    17    18   ar
    21    18    19   ar
    22     5     6   ar
    23     6     7    1
    24     7     8   ar
    25     8     9   ar
    26     9    10   ar
    27    10    11    1
    28    10    12   ar
    29    12    13   ar
    30     6     2   ar
    31    13     7   ar
    32    30    25    1
    33    19    14   ar
@<TRIPOS>MOLECULE
*****
 30 33 0 0 0
SMALL
GASTEIGER

@<TRIPOS>ATOM
      1 C         143.7724  141.0906  158.8903 C.3     1  UNL1        0.0501
      2 C         142.6048  140.3572  159.4808 C.ar    1  UNL1        0.0391
      3 C         141.6114  139.5262  158.7240 C.ar    1  UNL1        0.0073
      4 C         140.6182  138.9814  159.7073 C.ar    1  UNL1        0.0157
      5 C         140.9977  139.4757  161.0717 C.ar    1  UNL1        0.0634
      6 N         142.2256  140.3259  160.9317 N.ar    1  UNL1       -0.3101
      7 C         142.9474  141.0226  162.0469 C.ar    1  UNL1        0.0638
      8 C         144.2353  140.4615  162.5726 C.ar    1  UNL1        0.0198
      9 C         144.9572  141.1581  163.6878 C.ar    1  UNL1        0.0311
     10 C         144.3911  142.4160  164.2772 C.ar    1  UNL1        0.1402
     11 F         145.1130  143.1127  165.3924 F       1  UNL1       -0.2042
     12 C         143.1032  142.9772  163.7514 C.ar    1  UNL1        0.0311
     13 C         142.3814  142.2805  162.6363 C.ar    1  UNL1        0.0198
     14 C         140.2762  139.1728  162.3514 C.ar    1  UNL1        0.0161
     15 C         139.2195  140.1099  162.8565 C.ar    1  UNL1        0.0014
     16 C         138.4980  139.8070  164.1362 C.ar    1  UNL1        0.0039
     17 C         138.8332  138.5672  164.9109 C.ar    1  UNL1        0.0714
     18 C         139.8900  137.6300  164.4059 C.ar    1  UNL1        0.0039
     19 C         140.6115  137.9329  163.1261 C.ar    1  UNL1        0.0014
     20 C         138.1117  138.2643  166.1906 C.3     1  UNL1        0.4186
     21 F         137.3902  137.9616  167.4703 F       1  UNL1       -0.1659
     22 F         138.2094  136.7963  165.8983 F       1  UNL1       -0.1659
     23 F         138.0140  139.7324  166.4829 F       1  UNL1       -0.1659
     24 C         141.6112  139.2828  157.2440 C.3     1  UNL1        0.1004
     25 N         142.6882  138.4445  156.6216 N.3     1  UNL1       -0.2646
     26 C         142.6713  136.9543  156.7921 C.3     1  UNL1        0.1049
     27 C         143.7483  136.1160  156.1697 C.3     1  UNL1        0.1595
     28 O         144.8421  136.7679  155.3769 O.3     1  UNL1       -0.3508
     29 C         144.8590  138.2581  155.2064 C.3     1  UNL1        0.1595
     30 C         143.7820  139.0963  155.8288 C.3     1  UNL1        0.1049
@<TRIPOS>BOND
     1     1     2    1
     2     2     3   ar
     3     3    24    1
     4    24    25    1
     5    25    26    1
     6    26    27    1
     7    27    28    1
     8    28    29    1
     9    29    30    1
    10     3     4   ar
    11     4     5   ar
    12     5    14    1
    13    14    15   ar
    14    15    16   ar
    15    16    17   ar
    16    17    20    1
    17    20    21    1
    18    20    22    1
    19    20    23    1
    20    17    18   ar
    21    18    19   ar
    22     5     6   ar
    23     6     7    1
    24     7     8   ar
    25     8     9   ar
    26     9    10   ar
    27    10    11    1
    28    10    12   ar
    29    12    13   ar
    30     6     2   ar
    31    13     7   ar
    32    30    25    1
    33    19    14   ar
@<TRIPOS>MOLECULE
*****
 30 33 0 0 0
SMALL
GASTEIGER

@<TRIPOS>ATOM
      1 C         143.2175  138.5013  165.9491 C.3     1  UNL1        0.0501
      2 C         142.7605  139.8735  165.5513 C.ar    1  UNL1        0.0391
      3 C         142.5045  141.0218  166.4817 C.ar    1  UNL1        0.0073
      4 C         142.0650  142.1963  165.6586 C.ar    1  UNL1        0.0157
      5 C         142.0494  141.7738  164.2194 C.ar    1  UNL1        0.0634
      6 N         142.4792  140.3382  164.1531 N.ar    1  UNL1       -0.3101
      7 C         142.6056  139.5124  162.9073 C.ar    1  UNL1        0.0638
      8 C         143.9463  139.3333  162.2589 C.ar    1  UNL1        0.0198
      9 C         144.0728  138.5075  161.0131 C.ar    1  UNL1        0.0311
     10 C         142.8583  137.8607  160.4156 C.ar    1  UNL1        0.1402
     11 F         142.9847  137.0348  159.1698 F       1  UNL1       -0.2042
     12 C         141.5176  138.0397  161.0640 C.ar    1  UNL1        0.0311
     13 C         141.3912  138.8656  162.3098 C.ar    1  UNL1        0.0198
     14 C         141.6705  142.6356  163.0516 C.ar    1  UNL1        0.0161
     15 C         142.7019  143.0075  162.0280 C.ar    1  UNL1        0.0014
     16 C         142.3230  143.8692  160.8603 C.ar    1  UNL1        0.0039
     17 C         140.9127  144.3591  160.7161 C.ar    1  UNL1        0.0714
     18 C         139.8812  143.9873  161.7397 C.ar    1  UNL1        0.0039
     19 C         140.2601  143.1255  162.9074 C.ar    1  UNL1        0.0014
     20 C         140.5337  145.2209  159.5483 C.3     1  UNL1        0.4186
     21 F         140.1549  146.0826  158.3804 F       1  UNL1       -0.1659
     22 F         139.8154  146.1583  160.4731 F       1  UNL1       -0.1659
     23 F         141.2521  144.2835  158.6234 F       1  UNL1       -0.1659
     24 C         142.6606  140.9996  167.9734 C.3     1  UNL1        0.1004
     25 N         141.4783  141.2725  168.8554 N.3     1  UNL1       -0.2646
     26 C         140.5165  140.1692  169.1831 C.3     1  UNL1        0.1049
     27 C         139.3343  140.4422  170.0650 C.3     1  UNL1        0.1595
     28 O         139.1139  141.8185  170.6193 O.3     1  UNL1       -0.3508
     29 C         140.0758  142.9218  170.2916 C.3     1  UNL1        0.1595
     30 C         141.2580  142.6488  169.4096 C.3     1  UNL1        0.1049
@<TRIPOS>BOND
     1     1     2    1
     2     2     3   ar
     3     3    24    1
     4    24    25    1
     5    25    26    1
     6    26    27    1
     7    27    28    1
     8    28    29    1
     9    29    30    1
    10     3     4   ar
    11     4     5   ar
    12     5    14    1
    13    14    15   ar
    14    15    16   ar
    15    16    17   ar
    16    17    20    1
    17    20    21    1
    18    20    22    1
    19    20    23    1
    20    17    18   ar
    21    18    19   ar
    22     5     6   ar
    23     6     7    1
    24     7     8   ar
    25     8     9   ar
    26     9    10   ar
    27    10    11    1
    28    10    12   ar
    29    12    13   ar
    30     6     2   ar
    31    13     7   ar
    32    30    25    1
    33    19    14   ar
@<TRIPOS>MOLECULE
*****
 30 33 0 0 0
SMALL
GASTEIGER

@<TRIPOS>ATOM
      1 C         142.5232  139.5096  158.6074 C.3     1  UNL1        0.0501
      2 C         141.3482  139.1913  159.4838 C.ar    1  UNL1        0.0391
      3 C         140.0214  138.6650  159.0229 C.ar    1  UNL1        0.0073
      4 C         139.1469  138.4918  160.2293 C.ar    1  UNL1        0.0157
      5 C         139.9333  138.9112  161.4358 C.ar    1  UNL1        0.0634
      6 N         141.2938  139.3435  160.9751 N.ar    1  UNL1       -0.3101
      7 C         142.4048  139.8407  161.8517 C.ar    1  UNL1        0.0638
      8 C         142.6682  141.3129  161.9664 C.ar    1  UNL1        0.0198
      9 C         143.7792  141.8102  162.8430 C.ar    1  UNL1        0.0311
     10 C         144.6268  140.8350  163.6050 C.ar    1  UNL1        0.1402
     11 F         145.7379  141.3322  164.4817 F       1  UNL1       -0.2042
     12 C         144.3635  139.3628  163.4904 C.ar    1  UNL1        0.0311
     13 C         143.2525  138.8656  162.6138 C.ar    1  UNL1        0.0198
     14 C         139.4450  138.9001  162.8541 C.ar    1  UNL1        0.0161
     15 C         138.8040  140.1249  163.4361 C.ar    1  UNL1        0.0014
     16 C         138.3157  140.1139  164.8544 C.ar    1  UNL1        0.0039
     17 C         138.4684  138.8780  165.6905 C.ar    1  UNL1        0.0714
     18 C         139.1094  137.6532  165.1085 C.ar    1  UNL1        0.0039
     19 C         139.5977  137.6642  163.6903 C.ar    1  UNL1        0.0014
     20 C         137.9801  138.8670  167.1088 C.3     1  UNL1        0.4186
     21 F         137.4918  138.8560  168.5270 F       1  UNL1       -0.1659
     22 F         137.1471  137.6553  166.8125 F       1  UNL1       -0.1659
     23 F         138.8131  140.0788  167.4051 F       1  UNL1       -0.1659
     24 C         139.6366  138.3646  157.6046 C.3     1  UNL1        0.1004
     25 N         138.9239  139.3996  156.7855 N.3     1  UNL1       -0.2646
     26 C         138.2451  140.5539  157.4612 C.3     1  UNL1        0.1049
     27 C         137.5325  141.5889  156.6421 C.3     1  UNL1        0.1595
     28 O         137.4986  141.4695  155.1473 O.3     1  UNL1       -0.3508
     29 C         138.1774  140.3152  154.4715 C.3     1  UNL1        0.1595
     30 C         138.8901  139.2802  155.2906 C.3     1  UNL1        0.1049
@<TRIPOS>BOND
     1     1     2    1
     2     2     3   ar
     3     3    24    1
     4    24    25    1
     5    25    26    1
     6    26    27    1
     7    27    28    1
     8    28    29    1
     9    29    30    1
    10     3     4   ar
    11     4     5   ar
    12     5    14    1
    13    14    15   ar
    14    15    16   ar
    15    16    17   ar
    16    17    20    1
    17    20    21    1
    18    20    22    1
    19    20    23    1
    20    17    18   ar
    21    18    19   ar
    22     5     6   ar
    23     6     7    1
    24     7     8   ar
    25     8     9   ar
    26     9    10   ar
    27    10    11    1
    28    10    12   ar
    29    12    13   ar
    30     6     2   ar
    31    13     7   ar
    32    30    25    1
    33    19    14   ar
