@<TRIPOS>MOLECULE
*****
 36 41 0 0 0
SMALL
GASTEIGER

@<TRIPOS>ATOM
      1 C         143.4093  139.3289  160.0020 C.ar    1  UNL1        0.1382
      2 C         142.4148  138.2068  160.0426 C.ar    1  UNL1        0.0366
      3 C         141.5117  138.0476  161.2296 C.ar    1  UNL1       -0.0015
      4 C         141.6031  139.0106  162.3760 C.ar    1  UNL1       -0.0263
      5 C         142.5977  140.1328  162.3354 C.ar    1  UNL1       -0.0231
      6 C         143.5007  140.2919  161.1484 C.ar    1  UNL1        0.0323
      7 C         142.6891  141.0958  163.4818 C.3     1  UNL1        0.0261
      8 C         141.7860  140.9366  164.6689 C.3     1  UNL1        0.0050
      9 C         140.7914  139.8144  164.7095 C.3     1  UNL1        0.0052
     10 C         139.8884  139.6553  165.8965 C.3     1  UNL1        0.0159
     11 C         139.7500  140.4434  167.1653 C.3     1  UNL1        0.0844
     12 C         138.6699  139.8083  167.9900 C.3     1  UNL1        0.0735
     13 C         138.1408  138.6277  167.2310 C.2     1  UNL1        0.1503
     14 O         137.0501  137.7038  167.6859 O.2     1  UNL1       -0.2961
     15 C         138.8938  138.5331  165.9372 C.3     1  UNL1        0.0520
     16 C         137.8557  137.4656  166.1184 C.3     1  UNL1        0.0073
     17 C         138.8023  137.5701  164.7908 C.3     1  UNL1        0.0073
     18 C         139.7055  137.7293  163.6037 C.3     1  UNL1        0.0048
     19 C         140.7000  138.8514  163.5631 C.3     1  UNL1        0.0221
     20 C         140.5510  141.6540  167.5430 C.2     1  UNL1        0.2256
     21 O         140.2305  142.9860  166.9321 O.2     1  UNL1       -0.2749
     22 N         141.6727  141.5327  168.5315 N.am    1  UNL1       -0.2795
     23 C         142.5564  142.6491  169.0036 C.3     1  UNL1        0.0935
     24 C         143.5374  142.0801  169.9854 C.3     1  UNL1        0.0233
     25 C         143.2600  140.6121  170.1200 C.3     1  UNL1        0.0233
     26 C         142.1075  140.2738  169.2214 C.3     1  UNL1        0.0935
     27 O         144.3124  139.4882  158.8149 O.3     1  UNL1       -0.4754
     28 C         144.0441  140.5668  157.8077 C.3     1  UNL1        0.2068
     29 C         142.6321  140.9178  157.4428 C.3     1  UNL1        0.0646
     30 C         141.9835  142.1323  158.0379 C.3     1  UNL1        0.0759
     31 C         141.8886  144.0214  160.6971 C.3     1  UNL1        0.0173
     32 C         140.9896  142.8551  160.4116 C.3     1  UNL1        0.0576
     33 C         139.8892  142.3524  161.2984 C.3     1  UNL1        0.0174
     34 C         139.2527  141.1732  160.6241 C.3     1  UNL1        0.0187
     35 C         139.9598  140.9473  159.3207 C.3     1  UNL1        0.0721
     36 N         141.0332  141.9867  159.1894 N.3     1  UNL1       -0.2738
@<TRIPOS>BOND
     1    32    31    1
     2    32    33    1
     3    33    34    1
     4    34    35    1
     5    35    36    1
     6    36    30    1
     7    30    29    1
     8    29    28    1
     9    28    27    1
    10    27     1    1
    11     1     2   ar
    12     2     3   ar
    13     3     4   ar
    14     4     5   ar
    15     5     6   ar
    16     5     7    1
    17     7     8    1
    18     9     8    1
    19     9    10    1
    20    10    11    1
    21    11    20    1
    22    20    21    2
    23    20    22   am
    24    22    23    1
    25    23    24    1
    26    24    25    1
    27    25    26    1
    28    11    12    1
    29    12    13    1
    30    13    14    2
    31    13    15    1
    32    15    16    1
    33    15    17    1
    34    17    18    1
    35    19    18    1
    36    36    32    1
    37     6     1   ar
    38    19     9    1
    39    19     4    1
    40    15    10    1
    41    26    22    1
@<TRIPOS>MOLECULE
*****
 36 41 0 0 0
SMALL
GASTEIGER

@<TRIPOS>ATOM
      1 C         142.9443  142.2166  159.7283 C.ar    1  UNL1        0.1382
      2 C         142.1631  140.9538  159.5160 C.ar    1  UNL1        0.0366
      3 C         141.4163  140.3328  160.6590 C.ar    1  UNL1       -0.0015
      4 C         141.4505  140.9746  162.0143 C.ar    1  UNL1       -0.0263
      5 C         142.2317  142.2374  162.2266 C.ar    1  UNL1       -0.0231
      6 C         142.9786  142.8584  161.0836 C.ar    1  UNL1        0.0323
      7 C         142.2660  142.8791  163.5820 C.3     1  UNL1        0.0261
      8 C         141.5191  142.2582  164.7250 C.3     1  UNL1        0.0050
      9 C         140.7379  140.9953  164.5127 C.3     1  UNL1        0.0052
     10 C         139.9910  140.3743  165.6557 C.3     1  UNL1        0.0159
     11 C         139.8411  140.7759  167.0931 C.3     1  UNL1        0.0844
     12 C         138.9673  139.7613  167.7692 C.3     1  UNL1        0.0735
     13 C         138.5772  138.7326  166.7496 C.2     1  UNL1        0.1503
     14 O         137.7071  137.5353  166.9934 O.2     1  UNL1       -0.2961
     15 C         139.2098  139.1114  165.4434 C.3     1  UNL1        0.0520
     16 C         138.3899  137.8568  165.3830 C.3     1  UNL1        0.0073
     17 C         139.1755  138.4697  164.0880 C.3     1  UNL1        0.0073
     18 C         139.9225  139.0907  162.9450 C.3     1  UNL1        0.0048
     19 C         140.7036  140.3535  163.1573 C.3     1  UNL1        0.0221
     20 C         140.4569  141.9806  167.7408 C.2     1  UNL1        0.2256
     21 O         139.9339  143.3508  167.4265 O.2     1  UNL1       -0.2749
     22 N         141.5959  141.8151  168.7027 N.am    1  UNL1       -0.2795
     23 C         142.3086  142.9205  169.4239 C.3     1  UNL1        0.0935
     24 C         143.3753  142.3037  170.2793 C.3     1  UNL1        0.0233
     25 C         143.3218  140.8170  170.0868 C.3     1  UNL1        0.0233
     26 C         142.2220  140.5150  169.1125 C.3     1  UNL1        0.0935
     27 O         143.6912  142.8377  158.5853 O.3     1  UNL1       -0.4754
     28 C         142.9546  143.6470  157.5594 C.3     1  UNL1        0.2068
     29 C         142.1871  144.8666  157.9761 C.3     1  UNL1        0.0646
     30 C         140.7058  144.7816  158.1964 C.3     1  UNL1        0.0759
     31 C         138.8026  142.3108  159.1566 C.3     1  UNL1        0.0173
     32 C         139.2893  143.4361  160.0207 C.3     1  UNL1        0.0576
     33 C         138.9867  143.6232  161.4779 C.3     1  UNL1        0.0174
     34 C         139.6746  144.8747  161.9372 C.3     1  UNL1        0.0187
     35 C         140.4023  145.4609  160.7638 C.3     1  UNL1        0.0721
     36 N         140.1642  144.5718  159.5794 N.3     1  UNL1       -0.2738
@<TRIPOS>BOND
     1    32    31    1
     2    32    33    1
     3    33    34    1
     4    34    35    1
     5    35    36    1
     6    36    30    1
     7    30    29    1
     8    29    28    1
     9    28    27    1
    10    27     1    1
    11     1     2   ar
    12     2     3   ar
    13     3     4   ar
    14     4     5   ar
    15     5     6   ar
    16     5     7    1
    17     7     8    1
    18     9     8    1
    19     9    10    1
    20    10    11    1
    21    11    20    1
    22    20    21    2
    23    20    22   am
    24    22    23    1
    25    23    24    1
    26    24    25    1
    27    25    26    1
    28    11    12    1
    29    12    13    1
    30    13    14    2
    31    13    15    1
    32    15    16    1
    33    15    17    1
    34    17    18    1
    35    19    18    1
    36    36    32    1
    37     6     1   ar
    38    19     9    1
    39    19     4    1
    40    15    10    1
    41    26    22    1
@<TRIPOS>MOLECULE
*****
 36 41 0 0 0
SMALL
GASTEIGER

@<TRIPOS>ATOM
      1 C         141.7330  143.5716  160.1865 C.ar    1  UNL1        0.1382
      2 C         140.9190  142.3381  159.9300 C.ar    1  UNL1        0.0366
      3 C         140.3470  141.5642  161.0806 C.ar    1  UNL1       -0.0015
      4 C         140.5891  142.0239  162.4878 C.ar    1  UNL1       -0.0263
      5 C         141.4031  143.2574  162.7443 C.ar    1  UNL1       -0.0231
      6 C         141.9751  144.0312  161.5937 C.ar    1  UNL1        0.0323
      7 C         141.6452  143.7170  164.1515 C.3     1  UNL1        0.0261
      8 C         141.0733  142.9432  165.3021 C.3     1  UNL1        0.0050
      9 C         140.2592  141.7096  165.0456 C.3     1  UNL1        0.0052
     10 C         139.6873  140.9358  166.1963 C.3     1  UNL1        0.0159
     11 C         139.7577  141.1444  167.6800 C.3     1  UNL1        0.0844
     12 C         138.9872  140.0398  168.3405 C.3     1  UNL1        0.0735
     13 C         138.4406  139.1485  167.2650 C.2     1  UNL1        0.1503
     14 O         137.6075  137.9193  167.4773 O.2     1  UNL1       -0.2961
     15 C         138.8732  139.7022  165.9398 C.3     1  UNL1        0.0520
     16 C         138.0438  138.4565  165.8390 C.3     1  UNL1        0.0073
     17 C         138.6312  139.2426  164.5326 C.3     1  UNL1        0.0073
     18 C         139.2031  140.0165  163.3819 C.3     1  UNL1        0.0048
     19 C         140.0171  141.2500  163.6384 C.3     1  UNL1        0.0221
     20 C         140.4730  142.2614  168.3803 C.2     1  UNL1        0.2256
     21 O         139.9248  143.6564  168.3217 O.2     1  UNL1       -0.2749
     22 N         141.7367  141.9836  169.1392 N.am    1  UNL1       -0.2795
     23 C         142.5574  142.9936  169.8850 C.3     1  UNL1        0.0935
     24 C         143.7295  142.2811  170.4923 C.3     1  UNL1        0.0233
     25 C         143.6330  140.8308  170.1218 C.3     1  UNL1        0.0233
     26 C         142.4014  140.6469  169.2856 C.3     1  UNL1        0.0935
     27 O         142.3050  144.3455  159.0358 O.3     1  UNL1       -0.4754
     28 C         143.0735  143.6343  157.9619 C.3     1  UNL1        0.2068
     29 C         144.2959  142.8399  158.3151 C.3     1  UNL1        0.0646
     30 C         144.1546  141.4935  158.9609 C.3     1  UNL1        0.0759
     31 C         143.0515  139.0277  160.7919 C.3     1  UNL1        0.0173
     32 C         143.8188  140.2181  161.2859 C.3     1  UNL1        0.0576
     33 C         144.2138  140.4841  162.7083 C.3     1  UNL1        0.0174
     34 C         144.9650  141.7819  162.7458 C.3     1  UNL1        0.0187
     35 C         145.0343  142.3180  161.3466 C.3     1  UNL1        0.0721
     36 N         144.3259  141.3515  160.4443 N.3     1  UNL1       -0.2738
@<TRIPOS>BOND
     1    32    31    1
     2    32    33    1
     3    33    34    1
     4    34    35    1
     5    35    36    1
     6    36    30    1
     7    30    29    1
     8    29    28    1
     9    28    27    1
    10    27     1    1
    11     1     2   ar
    12     2     3   ar
    13     3     4   ar
    14     4     5   ar
    15     5     6   ar
    16     5     7    1
    17     7     8    1
    18     9     8    1
    19     9    10    1
    20    10    11    1
    21    11    20    1
    22    20    21    2
    23    20    22   am
    24    22    23    1
    25    23    24    1
    26    24    25    1
    27    25    26    1
    28    11    12    1
    29    12    13    1
    30    13    14    2
    31    13    15    1
    32    15    16    1
    33    15    17    1
    34    17    18    1
    35    19    18    1
    36    36    32    1
    37     6     1   ar
    38    19     9    1
    39    19     4    1
    40    15    10    1
    41    26    22    1
@<TRIPOS>MOLECULE
*****
 36 41 0 0 0
SMALL
GASTEIGER

@<TRIPOS>ATOM
      1 C         140.0368  139.7139  156.8513 C.ar    1  UNL1        0.1382
      2 C         139.6003  138.4731  157.5723 C.ar    1  UNL1        0.0366
      3 C         139.4183  138.4955  159.0610 C.ar    1  UNL1       -0.0015
      4 C         139.6729  139.7587  159.8288 C.ar    1  UNL1       -0.0263
      5 C         140.1095  140.9995  159.1078 C.ar    1  UNL1       -0.0231
      6 C         140.2914  140.9771  157.6191 C.ar    1  UNL1        0.0323
      7 C         140.3641  142.2627  159.8756 C.3     1  UNL1        0.0261
      8 C         140.1821  142.2852  161.3643 C.3     1  UNL1        0.0050
      9 C         139.7455  141.0443  162.0854 C.3     1  UNL1        0.0052
     10 C         139.5635  141.0668  163.5741 C.3     1  UNL1        0.0159
     11 C         139.7383  142.1561  164.5903 C.3     1  UNL1        0.0844
     12 C         139.4097  141.5886  165.9394 C.3     1  UNL1        0.0735
     13 C         139.0319  140.1485  165.7569 C.2     1  UNL1        0.1503
     14 O         138.6296  139.1977  166.8452 O.2     1  UNL1       -0.2961
     15 C         139.1269  139.8259  164.2951 C.3     1  UNL1        0.0520
     16 C         138.6971  138.6695  165.1483 C.3     1  UNL1        0.0073
     17 C         138.8723  138.5627  163.5273 C.3     1  UNL1        0.0073
     18 C         139.0543  138.5403  162.0385 C.3     1  UNL1        0.0048
     19 C         139.4909  139.7811  161.3176 C.3     1  UNL1        0.0221
     20 C         140.1665  143.5655  164.3072 C.2     1  UNL1        0.2256
     21 O         139.1362  144.6414  164.1313 O.2     1  UNL1       -0.2749
     22 N         141.6250  143.8991  164.2000 N.am    1  UNL1       -0.2795
     23 C         142.2010  145.2560  163.9226 C.3     1  UNL1        0.0935
     24 C         143.6956  145.1299  163.9026 C.3     1  UNL1        0.0233
     25 C         144.0432  143.6950  164.1677 C.3     1  UNL1        0.0233
     26 C         142.7635  142.9343  164.3515 C.3     1  UNL1        0.0935
     27 O         140.2188  139.6915  155.3625 O.3     1  UNL1       -0.4754
     28 C         141.5925  139.5498  154.7769 C.3     1  UNL1        0.2068
     29 C         142.6247  138.7175  155.4784 C.3     1  UNL1        0.0646
     30 C         143.5904  139.3632  156.4273 C.3     1  UNL1        0.0759
     31 C         144.1825  141.6074  158.7213 C.3     1  UNL1        0.0173
     32 C         143.6988  140.2079  158.9609 C.3     1  UNL1        0.0576
     33 C         143.4024  139.5942  160.2972 C.3     1  UNL1        0.0174
     34 C         142.9470  138.1834  160.0686 C.3     1  UNL1        0.0187
     35 C         142.9620  137.9252  158.5911 C.3     1  UNL1        0.0721
     36 N         143.4267  139.1764  157.9065 N.3     1  UNL1       -0.2738
@<TRIPOS>BOND
     1    32    31    1
     2    32    33    1
     3    33    34    1
     4    34    35    1
     5    35    36    1
     6    36    30    1
     7    30    29    1
     8    29    28    1
     9    28    27    1
    10    27     1    1
    11     1     2   ar
    12     2     3   ar
    13     3     4   ar
    14     4     5   ar
    15     5     6   ar
    16     5     7    1
    17     7     8    1
    18     9     8    1
    19     9    10    1
    20    10    11    1
    21    11    20    1
    22    20    21    2
    23    20    22   am
    24    22    23    1
    25    23    24    1
    26    24    25    1
    27    25    26    1
    28    11    12    1
    29    12    13    1
    30    13    14    2
    31    13    15    1
    32    15    16    1
    33    15    17    1
    34    17    18    1
    35    19    18    1
    36    36    32    1
    37     6     1   ar
    38    19     9    1
    39    19     4    1
    40    15    10    1
    41    26    22    1
@<TRIPOS>MOLECULE
*****
 36 41 0 0 0
SMALL
GASTEIGER

@<TRIPOS>ATOM
      1 C         139.3892  140.6029  166.4227 C.ar    1  UNL1        0.1382
      2 C         139.7260  142.0624  166.3432 C.ar    1  UNL1        0.0366
      3 C         139.8419  142.7336  165.0068 C.ar    1  UNL1       -0.0015
      4 C         139.6211  141.9452  163.7499 C.ar    1  UNL1       -0.0263
      5 C         139.2843  140.4857  163.8294 C.ar    1  UNL1       -0.0231
      6 C         139.1684  139.8145  165.1658 C.ar    1  UNL1        0.0323
      7 C         139.0635  139.6974  162.5725 C.3     1  UNL1        0.0261
      8 C         139.1794  140.3686  161.2361 C.3     1  UNL1        0.0050
      9 C         139.5162  141.8282  161.1566 C.3     1  UNL1        0.0052
     10 C         139.6321  142.4994  159.8202 C.3     1  UNL1        0.0159
     11 C         139.4704  141.9841  158.4208 C.3     1  UNL1        0.0844
     12 C         139.7073  143.1251  157.4763 C.3     1  UNL1        0.0735
     13 C         140.0154  144.3457  158.2920 C.2     1  UNL1        0.1503
     14 O         140.3169  145.7129  157.7538 O.2     1  UNL1       -0.2961
     15 C         139.9689  143.9590  159.7406 C.3     1  UNL1        0.0520
     16 C         140.2975  145.4034  159.5050 C.3     1  UNL1        0.0073
     17 C         140.1897  144.7473  160.9975 C.3     1  UNL1        0.0073
     18 C         140.0738  144.0760  162.3339 C.3     1  UNL1        0.0048
     19 C         139.7370  142.6165  162.4134 C.3     1  UNL1        0.0221
     20 C         139.1314  140.5751  158.0337 C.2     1  UNL1        0.2256
     21 O         137.6966  140.1550  157.9130 O.2     1  UNL1       -0.2749
     22 N         140.2273  139.5861  157.7674 N.am    1  UNL1       -0.2795
     23 C         140.0429  138.1505  157.3737 C.3     1  UNL1        0.0935
     24 C         141.4017  137.5362  157.2110 C.3     1  UNL1        0.0233
     25 C         142.4259  138.5923  157.5042 C.3     1  UNL1        0.0233
     26 C         141.7001  139.8592  157.8480 C.3     1  UNL1        0.0935
     27 O         139.2733  139.9316  167.7592 O.3     1  UNL1       -0.4754
     28 C         139.9873  140.5012  168.9490 C.3     1  UNL1        0.2068
     29 C         141.0796  139.7174  169.6143 C.3     1  UNL1        0.0646
     30 C         142.5021  139.8872  169.1699 C.3     1  UNL1        0.0759
     31 C         142.6607  138.6815  166.1416 C.3     1  UNL1        0.0173
     32 C         142.8841  140.1119  166.5339 C.3     1  UNL1        0.0576
     33 C         143.2197  141.2393  165.6031 C.3     1  UNL1        0.0174
     34 C         143.3542  142.4903  166.4198 C.3     1  UNL1        0.0187
     35 C         143.1017  142.1361  167.8554 C.3     1  UNL1        0.0721
     36 N         142.8112  140.6661  167.9259 N.3     1  UNL1       -0.2738
@<TRIPOS>BOND
     1    32    31    1
     2    32    33    1
     3    33    34    1
     4    34    35    1
     5    35    36    1
     6    36    30    1
     7    30    29    1
     8    29    28    1
     9    28    27    1
    10    27     1    1
    11     1     2   ar
    12     2     3   ar
    13     3     4   ar
    14     4     5   ar
    15     5     6   ar
    16     5     7    1
    17     7     8    1
    18     9     8    1
    19     9    10    1
    20    10    11    1
    21    11    20    1
    22    20    21    2
    23    20    22   am
    24    22    23    1
    25    23    24    1
    26    24    25    1
    27    25    26    1
    28    11    12    1
    29    12    13    1
    30    13    14    2
    31    13    15    1
    32    15    16    1
    33    15    17    1
    34    17    18    1
    35    19    18    1
    36    36    32    1
    37     6     1   ar
    38    19     9    1
    39    19     4    1
    40    15    10    1
    41    26    22    1
@<TRIPOS>MOLECULE
*****
 36 41 0 0 0
SMALL
GASTEIGER

@<TRIPOS>ATOM
      1 C         142.1222  139.7625  157.5839 C.ar    1  UNL1        0.1382
      2 C         143.3399  139.1528  158.2126 C.ar    1  UNL1        0.0366
      3 C         143.4356  139.0380  159.7051 C.ar    1  UNL1       -0.0015
      4 C         142.3136  139.5330  160.5689 C.ar    1  UNL1       -0.0263
      5 C         141.0959  140.1427  159.9401 C.ar    1  UNL1       -0.0231
      6 C         141.0002  140.2574  158.4476 C.ar    1  UNL1        0.0323
      7 C         139.9739  140.6376  160.8039 C.3     1  UNL1        0.0261
      8 C         140.0696  140.5229  162.2964 C.3     1  UNL1        0.0050
      9 C         141.2874  139.9132  162.9252 C.3     1  UNL1        0.0052
     10 C         141.3831  139.7985  164.4177 C.3     1  UNL1        0.0159
     11 C         140.4433  140.1956  165.5173 C.3     1  UNL1        0.0844
     12 C         141.0802  139.8314  166.8256 C.3     1  UNL1        0.0735
     13 C         142.4137  139.2091  166.5347 C.2     1  UNL1        0.1503
     14 O         143.3888  138.6971  167.5530 O.2     1  UNL1       -0.2961
     15 C         142.6009  139.1888  165.0466 C.3     1  UNL1        0.0520
     16 C         143.7500  138.6054  165.8141 C.3     1  UNL1        0.0073
     17 C         143.7229  138.6938  164.1828 C.3     1  UNL1        0.0073
     18 C         143.6271  138.8086  162.6902 C.3     1  UNL1        0.0048
     19 C         142.4094  139.4183  162.0615 C.3     1  UNL1        0.0221
     20 C         139.1021  140.8433  165.3397 C.2     1  UNL1        0.2256
     21 O         137.8518  140.0226  165.4541 O.2     1  UNL1       -0.2749
     22 N         139.0111  142.3118  165.0477 N.am    1  UNL1       -0.2795
     23 C         137.7472  143.0941  164.8465 C.3     1  UNL1        0.0935
     24 C         138.1230  144.5217  164.5801 C.3     1  UNL1        0.0233
     25 C         139.6193  144.6216  164.6166 C.3     1  UNL1        0.0233
     26 C         140.1681  143.2558  164.9056 C.3     1  UNL1        0.0935
     27 O         142.0264  139.8772  156.0913 O.3     1  UNL1       -0.4754
     28 C         141.9165  141.2280  155.4484 C.3     1  UNL1        0.2068
     29 C         143.0977  142.1525  155.4392 C.3     1  UNL1        0.0646
     30 C         143.1328  143.3338  156.3629 C.3     1  UNL1        0.0759
     31 C         141.1112  144.0802  158.8135 C.3     1  UNL1        0.0173
     32 C         142.4783  143.4784  158.9505 C.3     1  UNL1        0.0576
     33 C         143.1562  143.1140  160.2380 C.3     1  UNL1        0.0174
     34 C         144.5045  142.5457  159.9073 C.3     1  UNL1        0.0187
     35 C         144.6598  142.5589  158.4155 C.3     1  UNL1        0.0721
     36 N         143.4076  143.1353  157.8241 N.3     1  UNL1       -0.2738
@<TRIPOS>BOND
     1    32    31    1
     2    32    33    1
     3    33    34    1
     4    34    35    1
     5    35    36    1
     6    36    30    1
     7    30    29    1
     8    29    28    1
     9    28    27    1
    10    27     1    1
    11     1     2   ar
    12     2     3   ar
    13     3     4   ar
    14     4     5   ar
    15     5     6   ar
    16     5     7    1
    17     7     8    1
    18     9     8    1
    19     9    10    1
    20    10    11    1
    21    11    20    1
    22    20    21    2
    23    20    22   am
    24    22    23    1
    25    23    24    1
    26    24    25    1
    27    25    26    1
    28    11    12    1
    29    12    13    1
    30    13    14    2
    31    13    15    1
    32    15    16    1
    33    15    17    1
    34    17    18    1
    35    19    18    1
    36    36    32    1
    37     6     1   ar
    38    19     9    1
    39    19     4    1
    40    15    10    1
    41    26    22    1
@<TRIPOS>MOLECULE
*****
 36 41 0 0 0
SMALL
GASTEIGER

@<TRIPOS>ATOM
      1 C         143.5643  139.5855  159.2079 C.ar    1  UNL1        0.1382
      2 C         142.9346  138.2362  159.3885 C.ar    1  UNL1        0.0366
      3 C         142.0571  137.9709  160.5758 C.ar    1  UNL1       -0.0015
      4 C         141.8094  139.0550  161.5824 C.ar    1  UNL1       -0.0263
      5 C         142.4391  140.4043  161.4019 C.ar    1  UNL1       -0.0231
      6 C         143.3166  140.6696  160.2146 C.ar    1  UNL1        0.0323
      7 C         142.1914  141.4884  162.4085 C.3     1  UNL1        0.0261
      8 C         141.3140  141.2232  163.5958 C.3     1  UNL1        0.0050
      9 C         140.6841  139.8738  163.7764 C.3     1  UNL1        0.0052
     10 C         139.8066  139.6085  164.9637 C.3     1  UNL1        0.0159
     11 C         139.3834  140.4751  166.1125 C.3     1  UNL1        0.0844
     12 C         138.4920  139.6613  167.0032 C.3     1  UNL1        0.0735
     13 C         138.3644  138.2918  166.4048 C.2     1  UNL1        0.1503
     14 O         137.5646  137.1546  166.9679 O.2     1  UNL1       -0.2961
     15 C         139.1768  138.2591  165.1443 C.3     1  UNL1        0.0520
     16 C         138.4826  136.9666  165.4563 C.3     1  UNL1        0.0073
     17 C         139.4245  137.1751  164.1376 C.3     1  UNL1        0.0073
     18 C         140.3021  137.4404  162.9503 C.3     1  UNL1        0.0048
     19 C         140.9318  138.7897  162.7697 C.3     1  UNL1        0.0221
     20 C         139.7816  141.9045  166.3322 C.2     1  UNL1        0.2256
     21 O         140.7733  142.2507  167.4030 O.2     1  UNL1       -0.2749
     22 N         139.1881  142.9877  165.4810 N.am    1  UNL1       -0.2795
     23 C         139.4885  144.4537  165.5835 C.3     1  UNL1        0.0935
     24 C         138.6761  145.1671  164.5437 C.3     1  UNL1        0.0233
     25 C         137.8736  144.1419  163.7987 C.3     1  UNL1        0.0233
     26 C         138.1901  142.7949  164.3780 C.3     1  UNL1        0.0935
     27 O         144.4419  139.8508  158.0206 O.3     1  UNL1       -0.4754
     28 C         144.1523  141.0140  157.1189 C.3     1  UNL1        0.2068
     29 C         142.8399  141.0947  156.3970 C.3     1  UNL1        0.0646
     30 C         141.7396  141.9602  156.9357 C.3     1  UNL1        0.0759
     31 C         140.3814  143.5071  159.4678 C.3     1  UNL1        0.0173
     32 C         140.1026  142.0953  159.0445 C.3     1  UNL1        0.0576
     33 C         139.1506  141.1468  159.7107 C.3     1  UNL1        0.0174
     34 C         139.1865  139.8494  158.9585 C.3     1  UNL1        0.0187
     35 C         140.1607  139.9963  157.8275 C.3     1  UNL1        0.0721
     36 N         140.7269  141.3843  157.8806 N.3     1  UNL1       -0.2738
@<TRIPOS>BOND
     1    32    31    1
     2    32    33    1
     3    33    34    1
     4    34    35    1
     5    35    36    1
     6    36    30    1
     7    30    29    1
     8    29    28    1
     9    28    27    1
    10    27     1    1
    11     1     2   ar
    12     2     3   ar
    13     3     4   ar
    14     4     5   ar
    15     5     6   ar
    16     5     7    1
    17     7     8    1
    18     9     8    1
    19     9    10    1
    20    10    11    1
    21    11    20    1
    22    20    21    2
    23    20    22   am
    24    22    23    1
    25    23    24    1
    26    24    25    1
    27    25    26    1
    28    11    12    1
    29    12    13    1
    30    13    14    2
    31    13    15    1
    32    15    16    1
    33    15    17    1
    34    17    18    1
    35    19    18    1
    36    36    32    1
    37     6     1   ar
    38    19     9    1
    39    19     4    1
    40    15    10    1
    41    26    22    1
@<TRIPOS>MOLECULE
*****
 36 41 0 0 0
SMALL
GASTEIGER

@<TRIPOS>ATOM
      1 C         141.4429  140.6322  165.5207 C.ar    1  UNL1        0.1382
      2 C         141.7647  142.0884  165.3601 C.ar    1  UNL1        0.0366
      3 C         141.5254  142.7687  164.0449 C.ar    1  UNL1       -0.0015
      4 C         140.9644  141.9928  162.8903 C.ar    1  UNL1       -0.0263
      5 C         140.6426  140.5366  163.0509 C.ar    1  UNL1       -0.0231
      6 C         140.8819  139.8563  164.3661 C.ar    1  UNL1        0.0323
      7 C         140.0816  139.7607  161.8962 C.3     1  UNL1        0.0261
      8 C         139.8424  140.4410  160.5810 C.3     1  UNL1        0.0050
      9 C         140.1641  141.8973  160.4203 C.3     1  UNL1        0.0052
     10 C         139.9249  142.5776  159.1051 C.3     1  UNL1        0.0159
     11 C         139.3860  142.0751  157.7985 C.3     1  UNL1        0.0844
     12 C         139.3748  143.2208  156.8304 C.3     1  UNL1        0.0735
     13 C         139.9067  144.4314  157.5386 C.2     1  UNL1        0.1503
     14 O         140.0699  145.7993  156.9452 O.2     1  UNL1       -0.2961
     15 C         140.2467  144.0339  158.9444 C.3     1  UNL1        0.0520
     16 C         140.5184  145.4764  158.6356 C.3     1  UNL1        0.0073
     17 C         140.8077  144.8098  160.0991 C.3     1  UNL1        0.0073
     18 C         141.0469  144.1294  161.4144 C.3     1  UNL1        0.0048
     19 C         140.7252  142.6732  161.5750 C.3     1  UNL1        0.0221
     20 C         138.9372  140.6731  157.5106 C.2     1  UNL1        0.2256
     21 O         137.4765  140.3331  157.5355 O.2     1  UNL1       -0.2749
     22 N         139.9492  139.6110  157.1978 N.am    1  UNL1       -0.2795
     23 C         139.6521  138.1730  156.8911 C.3     1  UNL1        0.0935
     24 C         140.9552  137.4737  156.6405 C.3     1  UNL1        0.0233
     25 C         142.0577  138.4794  156.7924 C.3     1  UNL1        0.0233
     26 C         141.4359  139.8004  157.1368 C.3     1  UNL1        0.0935
     27 O         141.6821  139.9518  166.8360 O.3     1  UNL1       -0.4754
     28 C         142.9537  139.1902  167.0661 C.3     1  UNL1        0.2068
     29 C         143.5624  138.3925  165.9511 C.3     1  UNL1        0.0646
     30 C         144.6923  138.9662  165.1484 C.3     1  UNL1        0.0759
     31 C         145.2862  141.9796  164.0458 C.3     1  UNL1        0.0173
     32 C         144.7195  140.8440  163.2464 C.3     1  UNL1        0.0576
     33 C         144.3264  140.8941  161.7997 C.3     1  UNL1        0.0174
     34 C         143.8104  139.5399  161.4123 C.3     1  UNL1        0.0187
     35 C         143.8846  138.6529  162.6197 C.3     1  UNL1        0.0721
     36 N         144.4465  139.4589  163.7532 N.3     1  UNL1       -0.2738
@<TRIPOS>BOND
     1    32    31    1
     2    32    33    1
     3    33    34    1
     4    34    35    1
     5    35    36    1
     6    36    30    1
     7    30    29    1
     8    29    28    1
     9    28    27    1
    10    27     1    1
    11     1     2   ar
    12     2     3   ar
    13     3     4   ar
    14     4     5   ar
    15     5     6   ar
    16     5     7    1
    17     7     8    1
    18     9     8    1
    19     9    10    1
    20    10    11    1
    21    11    20    1
    22    20    21    2
    23    20    22   am
    24    22    23    1
    25    23    24    1
    26    24    25    1
    27    25    26    1
    28    11    12    1
    29    12    13    1
    30    13    14    2
    31    13    15    1
    32    15    16    1
    33    15    17    1
    34    17    18    1
    35    19    18    1
    36    36    32    1
    37     6     1   ar
    38    19     9    1
    39    19     4    1
    40    15    10    1
    41    26    22    1
@<TRIPOS>MOLECULE
*****
 36 41 0 0 0
SMALL
GASTEIGER

@<TRIPOS>ATOM
      1 C         142.9353  138.2581  158.2491 C.ar    1  UNL1        0.1382
      2 C         142.9404  137.1839  159.2959 C.ar    1  UNL1        0.0366
      3 C         142.9168  137.5531  160.7495 C.ar    1  UNL1       -0.0015
      4 C         142.8882  138.9966  161.1563 C.ar    1  UNL1       -0.0263
      5 C         142.8831  140.0709  160.1095 C.ar    1  UNL1       -0.0231
      6 C         142.9067  139.7016  158.6559 C.ar    1  UNL1        0.0323
      7 C         142.8545  141.5144  160.5163 C.3     1  UNL1        0.0261
      8 C         142.8310  141.8836  161.9699 C.3     1  UNL1        0.0050
      9 C         142.8360  140.8093  163.0168 C.3     1  UNL1        0.0052
     10 C         142.8125  141.1786  164.4705 C.3     1  UNL1        0.0159
     11 C         142.7823  142.5059  165.1685 C.3     1  UNL1        0.0844
     12 C         142.7687  142.2519  166.6468 C.3     1  UNL1        0.0735
     13 C         142.7905  140.7677  166.8624 C.2     1  UNL1        0.1503
     14 O         142.7860  140.0694  168.1899 O.2     1  UNL1       -0.2961
     15 C         142.8176  140.1043  165.5174 C.3     1  UNL1        0.0520
     16 C         142.8195  139.1453  166.6708 C.3     1  UNL1        0.0073
     17 C         142.8462  138.6608  165.1106 C.3     1  UNL1        0.0073
     18 C         142.8697  138.2916  163.6569 C.3     1  UNL1        0.0048
     19 C         142.8647  139.3658  162.6100 C.3     1  UNL1        0.0221
     20 C         142.7681  143.8509  164.5048 C.2     1  UNL1        0.2256
     21 O         144.0070  144.6965  164.4970 O.2     1  UNL1       -0.2749
     22 N         141.5151  144.3505  163.8489 N.am    1  UNL1       -0.2795
     23 C         141.3506  145.6673  163.1497 C.3     1  UNL1        0.0935
     24 C         139.9403  145.7516  162.6456 C.3     1  UNL1        0.0233
     25 C         139.2332  144.4868  163.0334 C.3     1  UNL1        0.0233
     26 C         140.2064  143.6209  163.7770 C.3     1  UNL1        0.0935
     27 O         142.9589  137.8889  156.7954 O.3     1  UNL1       -0.4754
     28 C         141.6978  137.9499  155.9855 C.3     1  UNL1        0.2068
     29 C         140.3687  137.7462  156.6506 C.3     1  UNL1        0.0646
     30 C         139.5222  138.9301  157.0133 C.3     1  UNL1        0.0759
     31 C         139.3468  142.0176  158.0553 C.3     1  UNL1        0.0173
     32 C         139.3463  140.7933  158.9218 C.3     1  UNL1        0.0576
     33 C         139.2650  140.7732  160.4195 C.3     1  UNL1        0.0174
     34 C         139.2953  139.3415  160.8662 C.3     1  UNL1        0.0187
     35 C         139.3954  138.4768  159.6446 C.3     1  UNL1        0.0721
     36 N         139.4269  139.3741  158.4429 N.3     1  UNL1       -0.2738
@<TRIPOS>BOND
     1    32    31    1
     2    32    33    1
     3    33    34    1
     4    34    35    1
     5    35    36    1
     6    36    30    1
     7    30    29    1
     8    29    28    1
     9    28    27    1
    10    27     1    1
    11     1     2   ar
    12     2     3   ar
    13     3     4   ar
    14     4     5   ar
    15     5     6   ar
    16     5     7    1
    17     7     8    1
    18     9     8    1
    19     9    10    1
    20    10    11    1
    21    11    20    1
    22    20    21    2
    23    20    22   am
    24    22    23    1
    25    23    24    1
    26    24    25    1
    27    25    26    1
    28    11    12    1
    29    12    13    1
    30    13    14    2
    31    13    15    1
    32    15    16    1
    33    15    17    1
    34    17    18    1
    35    19    18    1
    36    36    32    1
    37     6     1   ar
    38    19     9    1
    39    19     4    1
    40    15    10    1
    41    26    22    1
