@<TRIPOS>MOLECULE
*****
 43 48 0 0 0
SMALL
GASTEIGER

@<TRIPOS>ATOM
      1 C         142.1650  143.6005  162.1843 C.ar    1  UNL1        0.0620
      2 C         141.4579  144.5160  161.2295 C.ar    1  UNL1        0.0150
      3 C         141.3111  144.1280  159.7879 C.ar    1  UNL1        0.0064
      4 C         140.6041  145.0435  158.8331 C.ar    1  UNL1        0.0002
      5 C         140.4573  144.6555  157.3916 C.ar    1  UNL1        0.0006
      6 C         141.0176  143.3520  156.9050 C.ar    1  UNL1        0.0084
      7 C         141.7247  142.4364  157.8599 C.ar    1  UNL1        0.0465
      8 C         141.8715  142.8245  159.3013 C.ar    1  UNL1        0.0642
      9 C         142.5786  141.9089  160.2563 C.ar    1  UNL1        0.2650
     10 O         143.1389  140.6053  159.7697 O.2     1  UNL1       -0.2666
     11 N         142.7253  142.2969  161.6977 N.ar    1  UNL1       -0.2766
     12 C         143.4324  141.3814  162.6527 C.ar    1  UNL1        0.0666
     13 C         144.8733  141.6213  162.9939 C.ar    1  UNL1        0.0176
     14 C         145.5804  140.7059  163.9488 C.ar    1  UNL1        0.0015
     15 C         144.8467  139.5504  164.5624 C.ar    1  UNL1        0.0001
     16 C         143.4058  139.3105  164.2212 C.ar    1  UNL1        0.0015
     17 C         142.6987  140.2259  163.2663 C.ar    1  UNL1        0.0176
     18 C         143.2038  145.1324  164.0076 C.3     1  UNL1        0.0278
     19 C         142.3118  143.9885  163.6259 C.3     1  UNL1        0.1106
     20 N         141.5666  143.2325  164.6856 N.am    1  UNL1       -0.2972
     21 C         142.3046  142.6665  165.8624 C.2     1  UNL1        0.2518
     22 O         143.7879  142.8564  165.9794 O.2     1  UNL1       -0.2699
     23 H         140.5930  143.1079  164.6088 H       1  UNL1        0.1500
     24 C         141.5594  141.9105  166.9222 C.ar    1  UNL1        0.1218
     25 C         141.8656  141.9177  168.3906 C.ar    1  UNL1        0.1529
     26 N         142.9708  142.6821  169.0570 N.pl3   1  UNL1       -0.3411
     27 N         140.8725  141.0262  169.0756 N.ar    1  UNL1       -0.1489
     28 N         139.9526  140.4681  168.0305 N.ar    1  UNL1       -0.2093
     29 C         138.7832  139.5328  168.1188 C.ar    1  UNL1        0.1037
     30 C         138.0383  139.1440  166.8762 C.ar    1  UNL1        0.0414
     31 C         138.4629  139.6905  165.5453 C.ar    1  UNL1        0.1022
     32 N         139.6322  140.6258  165.4571 N.ar    1  UNL1       -0.2247
     33 C         140.3771  141.0146  166.6997 C.ar    1  UNL1        0.1709
     34 H         143.5747  143.2436  168.5193 H       1  UNL1        0.1438
     35 H         143.0922  142.6224  170.0322 H       1  UNL1        0.1438
     36 C         142.2850  141.1329  157.3733 C.1     1  UNL1       -0.0595
     37 C         142.8454  139.8293  156.8867 C.1     1  UNL1       -0.0566
     38 C         143.4057  138.5258  156.4001 C.ar    1  UNL1        0.0815
     39 C         144.5129  138.3597  155.4018 C.ar    1  UNL1        0.1299
     40 N         144.7487  136.8907  155.2111 N.ar    1  UNL1       -0.1669
     41 N         143.7872  136.1488  156.0914 N.ar    1  UNL1       -0.2467
     42 C         143.6753  134.6581  156.2152 C.3     1  UNL1        0.1538
     43 C         142.9572  137.1593  156.8262 C.ar    1  UNL1        0.1049
@<TRIPOS>BOND
     1    19    18    1
     2    19    20    1
     3    20    21   am
     4    21    22    2
     5    21    24    1
     6    24    25   ar
     7    25    26    1
     8    25    27   ar
     9    27    28   ar
    10    28    29   ar
    11    29    30   ar
    12    30    31   ar
    13    31    32   ar
    14    32    33   ar
    15    19     1    1
    16     1     2   ar
    17     2     3   ar
    18     3     4   ar
    19     4     5   ar
    20     5     6   ar
    21     6     7   ar
    22     7    36    1
    23    36    37    3
    24    37    38    1
    25    38    39   ar
    26    39    40   ar
    27    40    41   ar
    28    41    42    1
    29    41    43   ar
    30     7     8   ar
    31     8     9   ar
    32     9    10    2
    33     9    11   ar
    34    11    12    1
    35    12    13   ar
    36    13    14   ar
    37    14    15   ar
    38    15    16   ar
    39    16    17   ar
    40    33    24   ar
    41    11     1   ar
    42    17    12   ar
    43    33    28   ar
    44     8     3   ar
    45    43    38   ar
    46    20    23    1
    47    26    34    1
    48    26    35    1
@<TRIPOS>MOLECULE
*****
 43 48 0 0 0
SMALL
GASTEIGER

@<TRIPOS>ATOM
      1 C         142.0775  141.5039  161.8689 C.ar    1  UNL1        0.0620
      2 C         143.0269  142.3383  161.0612 C.ar    1  UNL1        0.0150
      3 C         143.5597  141.8193  159.7585 C.ar    1  UNL1        0.0064
      4 C         144.5090  142.6537  158.9508 C.ar    1  UNL1        0.0002
      5 C         145.0417  142.1348  157.6481 C.ar    1  UNL1        0.0006
      6 C         144.6251  140.7815  157.1532 C.ar    1  UNL1        0.0084
      7 C         143.6757  139.9471  157.9609 C.ar    1  UNL1        0.0465
      8 C         143.1430  140.4660  159.2636 C.ar    1  UNL1        0.0642
      9 C         142.1936  139.6316  160.0714 C.ar    1  UNL1        0.2650
     10 O         141.7769  138.2783  159.5765 O.2     1  UNL1       -0.2666
     11 N         141.6609  140.1505  161.3740 N.ar    1  UNL1       -0.2766
     12 C         140.7115  139.3161  162.1818 C.ar    1  UNL1        0.0666
     13 C         141.2419  138.2761  163.1236 C.ar    1  UNL1        0.0176
     14 C         140.2926  137.4417  163.9314 C.ar    1  UNL1        0.0015
     15 C         138.8128  137.6474  163.7974 C.ar    1  UNL1        0.0001
     16 C         138.2824  138.6874  162.8555 C.ar    1  UNL1        0.0015
     17 C         139.2317  139.5218  162.0478 C.ar    1  UNL1        0.0176
     18 C         140.4553  143.0537  163.1790 C.3     1  UNL1        0.0278
     19 C         141.5448  142.0228  163.1716 C.3     1  UNL1        0.1106
     20 N         142.1016  141.5107  164.4669 N.am    1  UNL1       -0.2972
     21 C         141.1834  140.9270  165.4994 C.2     1  UNL1        0.2518
     22 O         139.7083  140.8553  165.2366 O.2     1  UNL1       -0.2699
     23 H         143.0697  141.5577  164.6394 H       1  UNL1        0.1500
     24 C         141.7402  140.4149  166.7947 C.ar    1  UNL1        0.1218
     25 C         142.7626  139.3279  166.9465 C.ar    1  UNL1        0.1529
     26 N         143.4077  138.5620  165.8296 N.pl3   1  UNL1       -0.3411
     27 N         143.0266  139.1411  168.4112 N.ar    1  UNL1       -0.1489
     28 N         142.1674  140.1127  169.1647 N.ar    1  UNL1       -0.2093
     29 C         142.0062  140.3822  170.6314 C.ar    1  UNL1        0.1037
     30 C         141.0500  141.4391  171.0991 C.ar    1  UNL1        0.0414
     31 C         140.2549  142.2263  170.1000 C.ar    1  UNL1        0.1022
     32 N         140.4161  141.9567  168.6332 N.ar    1  UNL1       -0.2247
     33 C         141.3723  140.8999  168.1656 C.ar    1  UNL1        0.1709
     34 H         143.1675  138.7582  164.8952 H       1  UNL1        0.1438
     35 H         144.0713  137.8633  166.0310 H       1  UNL1        0.1438
     36 C         143.2591  138.5938  157.4660 C.1     1  UNL1       -0.0595
     37 C         142.8424  137.2405  156.9711 C.1     1  UNL1       -0.0566
     38 C         142.4257  135.8871  156.4762 C.ar    1  UNL1        0.0815
     39 C         141.3424  135.6089  155.4768 C.ar    1  UNL1        0.1299
     40 N         141.2664  134.1243  155.2767 N.ar    1  UNL1       -0.1669
     41 N         142.3028  133.4849  156.1525 N.ar    1  UNL1       -0.2467
     42 C         142.5749  132.0142  156.2670 C.3     1  UNL1        0.1538
     43 C         143.0193  134.5744  156.8939 C.ar    1  UNL1        0.1049
@<TRIPOS>BOND
     1    19    18    1
     2    19    20    1
     3    20    21   am
     4    21    22    2
     5    21    24    1
     6    24    25   ar
     7    25    26    1
     8    25    27   ar
     9    27    28   ar
    10    28    29   ar
    11    29    30   ar
    12    30    31   ar
    13    31    32   ar
    14    32    33   ar
    15    19     1    1
    16     1     2   ar
    17     2     3   ar
    18     3     4   ar
    19     4     5   ar
    20     5     6   ar
    21     6     7   ar
    22     7    36    1
    23    36    37    3
    24    37    38    1
    25    38    39   ar
    26    39    40   ar
    27    40    41   ar
    28    41    42    1
    29    41    43   ar
    30     7     8   ar
    31     8     9   ar
    32     9    10    2
    33     9    11   ar
    34    11    12    1
    35    12    13   ar
    36    13    14   ar
    37    14    15   ar
    38    15    16   ar
    39    16    17   ar
    40    33    24   ar
    41    11     1   ar
    42    17    12   ar
    43    33    28   ar
    44     8     3   ar
    45    43    38   ar
    46    20    23    1
    47    26    34    1
    48    26    35    1
@<TRIPOS>MOLECULE
*****
 43 48 0 0 0
SMALL
GASTEIGER

@<TRIPOS>ATOM
      1 C         141.3376  140.9926  159.0714 C.ar    1  UNL1        0.0620
      2 C         142.0454  141.5935  157.8933 C.ar    1  UNL1        0.0150
      3 C         142.7391  140.7063  156.9026 C.ar    1  UNL1        0.0064
      4 C         143.4469  141.3072  155.7245 C.ar    1  UNL1        0.0002
      5 C         144.1406  140.4199  154.7338 C.ar    1  UNL1        0.0006
      6 C         144.1266  138.9317  154.9212 C.ar    1  UNL1        0.0084
      7 C         143.4189  138.3308  156.0994 C.ar    1  UNL1        0.0465
      8 C         142.7252  139.2181  157.0900 C.ar    1  UNL1        0.0642
      9 C         142.0174  138.6172  158.2682 C.ar    1  UNL1        0.2650
     10 O         142.0034  137.1290  158.4557 O.2     1  UNL1       -0.2666
     11 N         141.3236  139.5045  159.2589 N.ar    1  UNL1       -0.2766
     12 C         140.6159  138.9036  160.4370 C.ar    1  UNL1        0.0666
     13 C         141.3991  138.4658  161.6391 C.ar    1  UNL1        0.0176
     14 C         140.6914  137.8649  162.8173 C.ar    1  UNL1        0.0015
     15 C         139.2005  137.7018  162.7933 C.ar    1  UNL1        0.0001
     16 C         138.4173  138.1396  161.5913 C.ar    1  UNL1        0.0015
     17 C         139.1250  138.7404  160.4131 C.ar    1  UNL1        0.0176
     18 C         139.3858  142.5982  159.6734 C.3     1  UNL1        0.0278
     19 C         140.6439  141.8799  160.0621 C.3     1  UNL1        0.1106
     20 N         141.2082  142.0488  161.4416 N.am    1  UNL1       -0.2972
     21 C         142.2153  143.1267  161.7132 C.2     1  UNL1        0.2518
     22 O         142.6580  144.0358  160.6052 O.2     1  UNL1       -0.2699
     23 H         140.9176  141.4522  162.1688 H       1  UNL1        0.1500
     24 C         142.7797  143.2956  163.0926 C.ar    1  UNL1        0.1218
     25 C         143.6652  144.4158  163.5519 C.ar    1  UNL1        0.1529
     26 N         144.1418  145.5639  162.7124 N.pl3   1  UNL1       -0.3411
     27 N         143.9905  144.1865  164.9982 N.ar    1  UNL1       -0.1489
     28 N         143.3059  142.9245  165.4327 N.ar    1  UNL1       -0.2093
     29 C         143.2673  142.2056  166.7487 C.ar    1  UNL1        0.1037
     30 C         142.4804  140.9361  166.8869 C.ar    1  UNL1        0.0414
     31 C         141.7321  140.3855  165.7092 C.ar    1  UNL1        0.1022
     32 N         141.7708  141.1045  164.3933 N.ar    1  UNL1       -0.2247
     33 C         142.5577  142.3740  164.2550 C.ar    1  UNL1        0.1709
     34 H         143.8729  145.6277  161.7675 H       1  UNL1        0.1438
     35 H         144.7236  146.2536  163.1063 H       1  UNL1        0.1438
     36 C         143.4049  136.8427  156.2868 C.1     1  UNL1       -0.0595
     37 C         143.3909  135.3545  156.4743 C.1     1  UNL1       -0.0566
     38 C         143.3769  133.8663  156.6617 C.ar    1  UNL1        0.0815
     39 C         142.3750  132.9137  156.0798 C.ar    1  UNL1        0.1299
     40 N         142.7412  131.5281  156.5224 N.ar    1  UNL1       -0.1669
     41 N         143.9696  131.6243  157.3779 N.ar    1  UNL1       -0.2467
     42 C         144.6803  130.4769  158.0325 C.3     1  UNL1        0.1538
     43 C         144.3624  133.0694  157.4640 C.ar    1  UNL1        0.1049
@<TRIPOS>BOND
     1    19    18    1
     2    19    20    1
     3    20    21   am
     4    21    22    2
     5    21    24    1
     6    24    25   ar
     7    25    26    1
     8    25    27   ar
     9    27    28   ar
    10    28    29   ar
    11    29    30   ar
    12    30    31   ar
    13    31    32   ar
    14    32    33   ar
    15    19     1    1
    16     1     2   ar
    17     2     3   ar
    18     3     4   ar
    19     4     5   ar
    20     5     6   ar
    21     6     7   ar
    22     7    36    1
    23    36    37    3
    24    37    38    1
    25    38    39   ar
    26    39    40   ar
    27    40    41   ar
    28    41    42    1
    29    41    43   ar
    30     7     8   ar
    31     8     9   ar
    32     9    10    2
    33     9    11   ar
    34    11    12    1
    35    12    13   ar
    36    13    14   ar
    37    14    15   ar
    38    15    16   ar
    39    16    17   ar
    40    33    24   ar
    41    11     1   ar
    42    17    12   ar
    43    33    28   ar
    44     8     3   ar
    45    43    38   ar
    46    20    23    1
    47    26    34    1
    48    26    35    1
@<TRIPOS>MOLECULE
*****
 43 48 0 0 0
SMALL
GASTEIGER

@<TRIPOS>ATOM
      1 C         139.9602  141.8418  157.8700 C.ar    1  UNL1        0.0620
      2 C         140.0468  142.6393  156.6026 C.ar    1  UNL1        0.0150
      3 C         138.8624  142.7216  155.6858 C.ar    1  UNL1        0.0064
      4 C         138.9490  143.5192  154.4184 C.ar    1  UNL1        0.0002
      5 C         137.7646  143.6015  153.5017 C.ar    1  UNL1        0.0006
      6 C         136.4936  142.8862  153.8523 C.ar    1  UNL1        0.0084
      7 C         136.4070  142.0886  155.1197 C.ar    1  UNL1        0.0465
      8 C         137.5914  142.0064  156.0365 C.ar    1  UNL1        0.0642
      9 C         137.5049  141.2088  157.3039 C.ar    1  UNL1        0.2650
     10 O         136.2339  140.4935  157.6546 O.2     1  UNL1       -0.2666
     11 N         138.6892  141.1265  158.2207 N.ar    1  UNL1       -0.2766
     12 C         138.6027  140.3289  159.4881 C.ar    1  UNL1        0.0666
     13 C         139.2249  138.9660  159.5606 C.ar    1  UNL1        0.0176
     14 C         139.1384  138.1684  160.8280 C.ar    1  UNL1        0.0015
     15 C         138.4296  138.7337  162.0229 C.ar    1  UNL1        0.0001
     16 C         137.8074  140.0966  161.9505 C.ar    1  UNL1        0.0015
     17 C         137.8939  140.8942  160.6831 C.ar    1  UNL1        0.0176
     18 C         142.4369  141.1803  158.2924 C.3     1  UNL1        0.0278
     19 C         141.1446  141.7594  158.7868 C.3     1  UNL1        0.1106
     20 N         141.0367  142.2563  160.1980 N.am    1  UNL1       -0.2972
     21 C         141.5932  143.6001  160.5646 C.2     1  UNL1        0.2518
     22 O         142.2576  144.4470  159.5201 O.2     1  UNL1       -0.2699
     23 H         140.6005  141.7004  160.8836 H       1  UNL1        0.1500
     24 C         141.4852  144.0970  161.9758 C.ar    1  UNL1        0.1218
     25 C         142.6000  144.6790  162.7934 C.ar    1  UNL1        0.1529
     26 N         144.0186  144.8664  162.3433 N.pl3   1  UNL1       -0.3411
     27 N         142.0472  145.0408  164.1401 N.ar    1  UNL1       -0.1489
     28 N         140.5908  144.6824  164.1548 N.ar    1  UNL1       -0.2093
     29 C         139.5359  144.8118  165.2134 C.ar    1  UNL1        0.1037
     30 C         138.1338  144.3579  164.9344 C.ar    1  UNL1        0.0414
     31 C         137.7864  143.7746  163.5968 C.ar    1  UNL1        0.1022
     32 N         138.8412  143.6452  162.5383 N.ar    1  UNL1       -0.2247
     33 C         140.2434  144.0991  162.8173 C.ar    1  UNL1        0.1709
     34 H         144.2866  144.5963  161.4353 H       1  UNL1        0.1438
     35 H         144.6815  145.2594  162.9559 H       1  UNL1        0.1438
     36 C         135.1361  141.3733  155.4704 C.1     1  UNL1       -0.0595
     37 C         133.8651  140.6581  155.8211 C.1     1  UNL1       -0.0566
     38 C         132.5941  139.9428  156.1717 C.ar    1  UNL1        0.0815
     39 C         132.4797  138.5143  156.6150 C.ar    1  UNL1        0.1299
     40 N         131.0293  138.2191  156.8579 N.ar    1  UNL1       -0.1669
     41 N         130.2472  139.4651  156.5648 N.ar    1  UNL1       -0.2467
     42 C         128.7593  139.6188  156.6763 C.3     1  UNL1        0.1538
     43 C         131.2143  140.5303  156.1408 C.ar    1  UNL1        0.1049
@<TRIPOS>BOND
     1    19    18    1
     2    19    20    1
     3    20    21   am
     4    21    22    2
     5    21    24    1
     6    24    25   ar
     7    25    26    1
     8    25    27   ar
     9    27    28   ar
    10    28    29   ar
    11    29    30   ar
    12    30    31   ar
    13    31    32   ar
    14    32    33   ar
    15    19     1    1
    16     1     2   ar
    17     2     3   ar
    18     3     4   ar
    19     4     5   ar
    20     5     6   ar
    21     6     7   ar
    22     7    36    1
    23    36    37    3
    24    37    38    1
    25    38    39   ar
    26    39    40   ar
    27    40    41   ar
    28    41    42    1
    29    41    43   ar
    30     7     8   ar
    31     8     9   ar
    32     9    10    2
    33     9    11   ar
    34    11    12    1
    35    12    13   ar
    36    13    14   ar
    37    14    15   ar
    38    15    16   ar
    39    16    17   ar
    40    33    24   ar
    41    11     1   ar
    42    17    12   ar
    43    33    28   ar
    44     8     3   ar
    45    43    38   ar
    46    20    23    1
    47    26    34    1
    48    26    35    1
@<TRIPOS>MOLECULE
*****
 43 48 0 0 0
SMALL
GASTEIGER

@<TRIPOS>ATOM
      1 C         143.1184  140.3250  162.3535 C.ar    1  UNL1        0.0620
      2 C         143.1727  139.0329  161.5937 C.ar    1  UNL1        0.0150
      3 C         142.7800  138.9968  160.1464 C.ar    1  UNL1        0.0064
      4 C         142.8343  137.7046  159.3865 C.ar    1  UNL1        0.0002
      5 C         142.4417  137.6686  157.9393 C.ar    1  UNL1        0.0006
      6 C         141.9948  138.9247  157.2519 C.ar    1  UNL1        0.0084
      7 C         141.9405  140.2168  158.0118 C.ar    1  UNL1        0.0465
      8 C         142.3331  140.2529  159.4590 C.ar    1  UNL1        0.0642
      9 C         142.2788  141.5451  160.2189 C.ar    1  UNL1        0.2650
     10 O         141.8319  142.8011  159.5315 O.2     1  UNL1       -0.2666
     11 N         142.6715  141.5811  161.6661 N.ar    1  UNL1       -0.2766
     12 C         142.6172  142.8733  162.4261 C.ar    1  UNL1        0.0666
     13 C         143.8482  143.7209  162.5530 C.ar    1  UNL1        0.0176
     14 C         143.7940  145.0131  163.3129 C.ar    1  UNL1        0.0015
     15 C         142.5087  145.4575  163.9458 C.ar    1  UNL1        0.0001
     16 C         141.2777  144.6098  163.8188 C.ar    1  UNL1        0.0015
     17 C         141.3320  143.3177  163.0590 C.ar    1  UNL1        0.0176
     18 C         144.9582  140.2830  164.1875 C.3     1  UNL1        0.0278
     19 C         143.5110  140.3611  163.8008 C.3     1  UNL1        0.1106
     20 N         142.4564  140.4753  164.8614 N.am    1  UNL1       -0.2972
     21 C         141.6351  139.2770  165.2345 C.2     1  UNL1        0.2518
     22 O         141.8683  137.9644  164.5470 O.2     1  UNL1       -0.2699
     23 H         142.3034  141.3368  165.3126 H       1  UNL1        0.1500
     24 C         140.5805  139.3912  166.2950 C.ar    1  UNL1        0.1218
     25 C         139.2134  138.7755  166.2490 C.ar    1  UNL1        0.1529
     26 N         138.6609  137.9376  165.1343 N.pl3   1  UNL1       -0.3411
     27 N         138.4958  139.1450  167.5133 N.ar    1  UNL1       -0.1489
     28 N         139.4194  139.9889  168.3408 N.ar    1  UNL1       -0.2093
     29 C         139.2537  140.6385  169.6827 C.ar    1  UNL1        0.1037
     30 C         140.3764  141.4403  170.2715 C.ar    1  UNL1        0.0414
     31 C         141.6647  141.5925  169.5185 C.ar    1  UNL1        0.1022
     32 N         141.8304  140.9428  168.1767 N.ar    1  UNL1       -0.2247
     33 C         140.7078  140.1411  167.5879 C.ar    1  UNL1        0.1709
     34 H         139.2119  137.7491  164.3405 H       1  UNL1        0.1438
     35 H         137.7473  137.5761  165.1965 H       1  UNL1        0.1438
     36 C         141.4936  141.4729  157.3244 C.1     1  UNL1       -0.0595
     37 C         141.0466  142.7290  156.6370 C.1     1  UNL1       -0.0566
     38 C         140.5997  143.9851  155.9496 C.ar    1  UNL1        0.0815
     39 C         140.7650  144.2993  154.4923 C.ar    1  UNL1        0.1299
     40 N         140.1765  145.6559  154.2408 N.ar    1  UNL1       -0.1669
     41 N         139.6474  146.1802  155.5428 N.ar    1  UNL1       -0.2467
     42 C         138.9749  147.5045  155.7521 C.3     1  UNL1        0.1538
     43 C         139.9090  145.1476  156.5989 C.ar    1  UNL1        0.1049
@<TRIPOS>BOND
     1    19    18    1
     2    19    20    1
     3    20    21   am
     4    21    22    2
     5    21    24    1
     6    24    25   ar
     7    25    26    1
     8    25    27   ar
     9    27    28   ar
    10    28    29   ar
    11    29    30   ar
    12    30    31   ar
    13    31    32   ar
    14    32    33   ar
    15    19     1    1
    16     1     2   ar
    17     2     3   ar
    18     3     4   ar
    19     4     5   ar
    20     5     6   ar
    21     6     7   ar
    22     7    36    1
    23    36    37    3
    24    37    38    1
    25    38    39   ar
    26    39    40   ar
    27    40    41   ar
    28    41    42    1
    29    41    43   ar
    30     7     8   ar
    31     8     9   ar
    32     9    10    2
    33     9    11   ar
    34    11    12    1
    35    12    13   ar
    36    13    14   ar
    37    14    15   ar
    38    15    16   ar
    39    16    17   ar
    40    33    24   ar
    41    11     1   ar
    42    17    12   ar
    43    33    28   ar
    44     8     3   ar
    45    43    38   ar
    46    20    23    1
    47    26    34    1
    48    26    35    1
@<TRIPOS>MOLECULE
*****
 43 48 0 0 0
SMALL
GASTEIGER

@<TRIPOS>ATOM
      1 C         143.6807  141.2855  159.2569 C.ar    1  UNL1        0.0620
      2 C         144.0758  141.8775  157.9365 C.ar    1  UNL1        0.0150
      3 C         144.0832  141.0230  156.7036 C.ar    1  UNL1        0.0064
      4 C         144.4783  141.6150  155.3832 C.ar    1  UNL1        0.0002
      5 C         144.4857  140.7606  154.1504 C.ar    1  UNL1        0.0006
      6 C         144.0979  139.3142  154.2380 C.ar    1  UNL1        0.0084
      7 C         143.7028  138.7223  155.5584 C.ar    1  UNL1        0.0465
      8 C         143.6954  139.5767  156.7912 C.ar    1  UNL1        0.0642
      9 C         143.3003  138.9848  158.1116 C.ar    1  UNL1        0.2650
     10 O         142.9126  137.5384  158.1992 O.2     1  UNL1       -0.2666
     11 N         143.2930  139.8392  159.3444 N.ar    1  UNL1       -0.2766
     12 C         142.8979  139.2472  160.6649 C.ar    1  UNL1        0.0666
     13 C         141.4742  138.8430  160.9097 C.ar    1  UNL1        0.0176
     14 C         141.0791  138.2511  162.2301 C.ar    1  UNL1        0.0015
     15 C         142.1076  138.0634  163.3057 C.ar    1  UNL1        0.0001
     16 C         143.5312  138.4677  163.0609 C.ar    1  UNL1        0.0015
     17 C         143.9263  139.0596  161.7405 C.ar    1  UNL1        0.0176
     18 C         144.9403  142.7927  160.9575 C.3     1  UNL1        0.0278
     19 C         143.6734  142.1400  160.4898 C.3     1  UNL1        0.1106
     20 N         142.3990  142.3416  161.2549 N.am    1  UNL1       -0.2972
     21 C         141.6130  143.6075  161.0824 C.2     1  UNL1        0.2518
     22 O         142.1013  144.6716  160.1448 O.2     1  UNL1       -0.2699
     23 H         142.0786  141.6432  161.8702 H       1  UNL1        0.1500
     24 C         140.3387  143.8092  161.8475 C.ar    1  UNL1        0.1218
     25 C         139.4260  144.9950  161.7434 C.ar    1  UNL1        0.1529
     26 N         139.6274  146.1873  160.8558 N.pl3   1  UNL1       -0.3411
     27 N         138.2765  144.7791  162.6826 N.ar    1  UNL1       -0.1489
     28 N         138.4788  143.4599  163.3672 N.ar    1  UNL1       -0.2093
     29 C         137.6671  142.7270  164.3939 C.ar    1  UNL1        0.1037
     30 C         138.1299  141.3947  164.9045 C.ar    1  UNL1        0.0414
     31 C         139.4044  140.7952  164.3883 C.ar    1  UNL1        0.1022
     32 N         140.2161  141.5281  163.3617 N.ar    1  UNL1       -0.2247
     33 C         139.7532  142.8604  162.8511 C.ar    1  UNL1        0.1709
     34 H         140.4179  146.2379  160.2712 H       1  UNL1        0.1438
     35 H         138.9691  146.9193  160.8580 H       1  UNL1        0.1438
     36 C         143.3150  137.2759  155.6459 C.1     1  UNL1       -0.0595
     37 C         142.9273  135.8295  155.7335 C.1     1  UNL1       -0.0566
     38 C         142.5395  134.3832  155.8211 C.ar    1  UNL1        0.0815
     39 C         143.0250  133.4006  156.8452 C.ar    1  UNL1        0.1299
     40 N         142.3837  132.0756  156.5570 N.ar    1  UNL1       -0.1669
     41 N         141.5019  132.2392  155.3547 N.ar    1  UNL1       -0.2467
     42 C         140.6698  131.1653  154.7188 C.3     1  UNL1        0.1538
     43 C         141.5982  133.6654  154.8998 C.ar    1  UNL1        0.1049
@<TRIPOS>BOND
     1    19    18    1
     2    19    20    1
     3    20    21   am
     4    21    22    2
     5    21    24    1
     6    24    25   ar
     7    25    26    1
     8    25    27   ar
     9    27    28   ar
    10    28    29   ar
    11    29    30   ar
    12    30    31   ar
    13    31    32   ar
    14    32    33   ar
    15    19     1    1
    16     1     2   ar
    17     2     3   ar
    18     3     4   ar
    19     4     5   ar
    20     5     6   ar
    21     6     7   ar
    22     7    36    1
    23    36    37    3
    24    37    38    1
    25    38    39   ar
    26    39    40   ar
    27    40    41   ar
    28    41    42    1
    29    41    43   ar
    30     7     8   ar
    31     8     9   ar
    32     9    10    2
    33     9    11   ar
    34    11    12    1
    35    12    13   ar
    36    13    14   ar
    37    14    15   ar
    38    15    16   ar
    39    16    17   ar
    40    33    24   ar
    41    11     1   ar
    42    17    12   ar
    43    33    28   ar
    44     8     3   ar
    45    43    38   ar
    46    20    23    1
    47    26    34    1
    48    26    35    1
@<TRIPOS>MOLECULE
*****
 43 48 0 0 0
SMALL
GASTEIGER

@<TRIPOS>ATOM
      1 C         142.2007  141.1583  165.4779 C.ar    1  UNL1        0.0620
      2 C         143.0538  141.9107  166.4556 C.ar    1  UNL1        0.0150
      3 C         142.7129  141.8944  167.9163 C.ar    1  UNL1        0.0064
      4 C         143.5661  142.6468  168.8940 C.ar    1  UNL1        0.0002
      5 C         143.2252  142.6304  170.3546 C.ar    1  UNL1        0.0006
      6 C         142.0311  141.8617  170.8375 C.ar    1  UNL1        0.0084
      7 C         141.1779  141.1093  169.8598 C.ar    1  UNL1        0.0465
      8 C         141.5188  141.1257  168.3992 C.ar    1  UNL1        0.0642
      9 C         140.6657  140.3732  167.4214 C.ar    1  UNL1        0.2650
     10 O         139.4716  139.6045  167.9043 O.2     1  UNL1       -0.2666
     11 N         141.0066  140.3896  165.9608 N.ar    1  UNL1       -0.2766
     12 C         140.1534  139.6372  164.9830 C.ar    1  UNL1        0.0666
     13 C         140.4842  138.2154  164.6379 C.ar    1  UNL1        0.0176
     14 C         139.6311  137.4630  163.6602 C.ar    1  UNL1        0.0015
     15 C         138.4472  138.1323  163.0275 C.ar    1  UNL1        0.0001
     16 C         138.1165  139.5542  163.3725 C.ar    1  UNL1        0.0015
     17 C         138.9696  140.3066  164.3503 C.ar    1  UNL1        0.0176
     18 C         143.6651  140.3263  163.4997 C.3     1  UNL1        0.0278
     19 C         142.5416  141.1747  164.0172 C.3     1  UNL1        0.1106
     20 N         141.7588  142.0394  163.0740 N.am    1  UNL1       -0.2972
     21 C         142.1422  143.4766  162.8807 C.2     1  UNL1        0.2518
     22 O         143.3084  144.0491  163.6306 O.2     1  UNL1       -0.2699
     23 H         140.9935  141.6637  162.5818 H       1  UNL1        0.1500
     24 C         141.3595  144.3413  161.9375 C.ar    1  UNL1        0.1218
     25 C         140.1976  145.2170  162.3024 C.ar    1  UNL1        0.1529
     26 N         139.6143  145.3816  163.6745 N.pl3   1  UNL1       -0.3411
     27 N         139.7212  145.8991  161.0542 N.ar    1  UNL1       -0.1489
     28 N         140.5888  145.4450  159.9179 N.ar    1  UNL1       -0.2093
     29 C         140.5877  145.7838  158.4567 C.ar    1  UNL1        0.1037
     30 C         141.5990  145.1599  157.5414 C.ar    1  UNL1        0.0414
     31 C         142.6115  144.1972  158.0873 C.ar    1  UNL1        0.1022
     32 N         142.6127  143.8584  159.5485 N.ar    1  UNL1       -0.2247
     33 C         141.6013  144.4823  160.4639 C.ar    1  UNL1        0.1709
     34 H         139.9984  144.8884  164.4351 H       1  UNL1        0.1438
     35 H         138.8474  145.9828  163.8145 H       1  UNL1        0.1438
     36 C         139.9838  140.3405  170.3427 C.1     1  UNL1       -0.0595
     37 C         138.7898  139.5718  170.8256 C.1     1  UNL1       -0.0566
     38 C         137.5957  138.8030  171.3085 C.ar    1  UNL1        0.0815
     39 C         136.1670  139.0676  170.9358 C.ar    1  UNL1        0.1299
     40 N         135.3090  138.0628  171.6459 N.ar    1  UNL1       -0.1669
     41 N         136.2073  137.1773  172.4574 N.ar    1  UNL1       -0.2467
     42 C         135.7694  136.0348  173.3252 C.3     1  UNL1        0.1538
     43 C         137.6206  137.6347  172.2490 C.ar    1  UNL1        0.1049
@<TRIPOS>BOND
     1    19    18    1
     2    19    20    1
     3    20    21   am
     4    21    22    2
     5    21    24    1
     6    24    25   ar
     7    25    26    1
     8    25    27   ar
     9    27    28   ar
    10    28    29   ar
    11    29    30   ar
    12    30    31   ar
    13    31    32   ar
    14    32    33   ar
    15    19     1    1
    16     1     2   ar
    17     2     3   ar
    18     3     4   ar
    19     4     5   ar
    20     5     6   ar
    21     6     7   ar
    22     7    36    1
    23    36    37    3
    24    37    38    1
    25    38    39   ar
    26    39    40   ar
    27    40    41   ar
    28    41    42    1
    29    41    43   ar
    30     7     8   ar
    31     8     9   ar
    32     9    10    2
    33     9    11   ar
    34    11    12    1
    35    12    13   ar
    36    13    14   ar
    37    14    15   ar
    38    15    16   ar
    39    16    17   ar
    40    33    24   ar
    41    11     1   ar
    42    17    12   ar
    43    33    28   ar
    44     8     3   ar
    45    43    38   ar
    46    20    23    1
    47    26    34    1
    48    26    35    1
@<TRIPOS>MOLECULE
*****
 43 48 0 0 0
SMALL
GASTEIGER

@<TRIPOS>ATOM
      1 C         140.5831  140.3198  157.9960 C.ar    1  UNL1        0.0620
      2 C         139.7272  140.3156  156.7641 C.ar    1  UNL1        0.0150
      3 C         139.7517  139.1359  155.8379 C.ar    1  UNL1        0.0064
      4 C         138.8958  139.1317  154.6061 C.ar    1  UNL1        0.0002
      5 C         138.9203  137.9520  153.6799 C.ar    1  UNL1        0.0006
      6 C         139.8006  136.7766  153.9856 C.ar    1  UNL1        0.0084
      7 C         140.6564  136.7808  155.2175 C.ar    1  UNL1        0.0465
      8 C         140.6320  137.9605  156.1436 C.ar    1  UNL1        0.0642
      9 C         141.4878  137.9647  157.3755 C.ar    1  UNL1        0.2650
     10 O         142.3681  136.7893  157.6812 O.2     1  UNL1       -0.2666
     11 N         141.4634  139.1444  158.3017 N.ar    1  UNL1       -0.2766
     12 C         142.3192  139.1486  159.5336 C.ar    1  UNL1        0.0666
     13 C         143.5148  140.0510  159.6130 C.ar    1  UNL1        0.0176
     14 C         144.3707  140.0553  160.8449 C.ar    1  UNL1        0.0015
     15 C         144.0309  139.1573  161.9972 C.ar    1  UNL1        0.0001
     16 C         142.8353  138.2549  161.9178 C.ar    1  UNL1        0.0015
     17 C         141.9795  138.2506  160.6860 C.ar    1  UNL1        0.0176
     18 C         140.9579  142.8555  158.4203 C.3     1  UNL1        0.0278
     19 C         140.5587  141.4995  158.9222 C.3     1  UNL1        0.1106
     20 N         140.1350  141.3231  160.3503 N.am    1  UNL1       -0.2972
     21 C         138.9361  142.0575  160.8731 C.2     1  UNL1        0.2518
     22 O         138.1609  142.9682  159.9678 O.2     1  UNL1       -0.2699
     23 H         140.6439  140.7254  160.9444 H       1  UNL1        0.1500
     24 C         138.5125  141.8811  162.3011 C.ar    1  UNL1        0.1218
     25 C         137.8519  142.9189  163.1594 C.ar    1  UNL1        0.1529
     26 N         137.4990  144.3152  162.7404 N.pl3   1  UNL1       -0.3411
     27 N         137.6062  142.3152  164.5104 N.ar    1  UNL1       -0.1489
     28 N         138.1149  140.9042  164.4871 N.ar    1  UNL1       -0.2093
     29 C         138.1405  139.8291  165.5327 C.ar    1  UNL1        0.1037
     30 C         138.7262  138.4857  165.2130 C.ar    1  UNL1        0.0414
     31 C         139.2863  138.2175  163.8476 C.ar    1  UNL1        0.1022
     32 N         139.2607  139.2926  162.8019 N.ar    1  UNL1       -0.2247
     33 C         138.6750  140.6360  163.1217 C.ar    1  UNL1        0.1709
     34 H         137.7015  144.6210  161.8267 H       1  UNL1        0.1438
     35 H         137.0648  144.9259  163.3789 H       1  UNL1        0.1438
     36 C         141.5367  135.6054  155.5232 C.1     1  UNL1       -0.0595
     37 C         142.4170  134.4299  155.8289 C.1     1  UNL1       -0.0566
     38 C         143.2973  133.2545  156.1346 C.ar    1  UNL1        0.0815
     39 C         144.1340  133.0764  157.3667 C.ar    1  UNL1        0.1299
     40 N         144.8492  131.7626  157.2555 N.ar    1  UNL1       -0.1669
     41 N         144.4546  131.1287  155.9546 N.ar    1  UNL1       -0.2467
     42 C         144.9348  129.8052  155.4372 C.3     1  UNL1        0.1538
     43 C         143.4954  132.0508  155.2618 C.ar    1  UNL1        0.1049
@<TRIPOS>BOND
     1    19    18    1
     2    19    20    1
     3    20    21   am
     4    21    22    2
     5    21    24    1
     6    24    25   ar
     7    25    26    1
     8    25    27   ar
     9    27    28   ar
    10    28    29   ar
    11    29    30   ar
    12    30    31   ar
    13    31    32   ar
    14    32    33   ar
    15    19     1    1
    16     1     2   ar
    17     2     3   ar
    18     3     4   ar
    19     4     5   ar
    20     5     6   ar
    21     6     7   ar
    22     7    36    1
    23    36    37    3
    24    37    38    1
    25    38    39   ar
    26    39    40   ar
    27    40    41   ar
    28    41    42    1
    29    41    43   ar
    30     7     8   ar
    31     8     9   ar
    32     9    10    2
    33     9    11   ar
    34    11    12    1
    35    12    13   ar
    36    13    14   ar
    37    14    15   ar
    38    15    16   ar
    39    16    17   ar
    40    33    24   ar
    41    11     1   ar
    42    17    12   ar
    43    33    28   ar
    44     8     3   ar
    45    43    38   ar
    46    20    23    1
    47    26    34    1
    48    26    35    1
@<TRIPOS>MOLECULE
*****
 43 48 0 0 0
SMALL
GASTEIGER

@<TRIPOS>ATOM
      1 C         141.0307  139.3878  163.8702 C.ar    1  UNL1        0.0620
      2 C         139.7292  138.7620  163.4647 C.ar    1  UNL1        0.0150
      3 C         138.9917  139.2761  162.2639 C.ar    1  UNL1        0.0064
      4 C         137.6902  138.6504  161.8584 C.ar    1  UNL1        0.0002
      5 C         136.9528  139.1645  160.6577 C.ar    1  UNL1        0.0006
      6 C         137.5169  140.3044  159.8624 C.ar    1  UNL1        0.0084
      7 C         138.8184  140.9302  160.2679 C.ar    1  UNL1        0.0465
      8 C         139.5558  140.4160  161.4687 C.ar    1  UNL1        0.0642
      9 C         140.8574  141.0418  161.8742 C.ar    1  UNL1        0.2650
     10 O         141.4215  142.1817  161.0790 O.2     1  UNL1       -0.2666
     11 N         141.5948  140.5277  163.0750 N.ar    1  UNL1       -0.2766
     12 C         142.8964  141.1534  163.4805 C.ar    1  UNL1        0.0666
     13 C         144.1900  140.5912  162.9702 C.ar    1  UNL1        0.0176
     14 C         145.4915  141.2169  163.3757 C.ar    1  UNL1        0.0015
     15 C         145.4994  142.4048  164.2916 C.ar    1  UNL1        0.0001
     16 C         144.2058  142.9670  164.8019 C.ar    1  UNL1        0.0015
     17 C         142.9043  142.3413  164.3964 C.ar    1  UNL1        0.0176
     18 C         142.5662  137.6072  164.9756 C.3     1  UNL1        0.0278
     19 C         141.7682  138.8736  165.0710 C.3     1  UNL1        0.1106
     20 N         141.7075  139.6260  166.3673 N.am    1  UNL1       -0.2972
     21 C         140.4700  139.5651  167.2127 C.2     1  UNL1        0.2518
     22 O         139.2931  138.7518  166.7618 O.2     1  UNL1       -0.2699
     23 H         142.4800  140.1599  166.6632 H       1  UNL1        0.1500
     24 C         140.4094  140.3175  168.5089 C.ar    1  UNL1        0.1218
     25 C         139.2710  140.3010  169.4855 C.ar    1  UNL1        0.1529
     26 N         137.9934  139.5292  169.3374 N.pl3   1  UNL1       -0.3411
     27 N         139.6346  141.1918  170.6363 N.ar    1  UNL1       -0.1489
     28 N         140.9977  141.7589  170.3709 N.ar    1  UNL1       -0.2093
     29 C         141.8647  142.6974  171.1566 C.ar    1  UNL1        0.1037
     30 C         143.2106  143.0957  170.6275 C.ar    1  UNL1        0.0414
     31 C         143.6894  142.5553  169.3127 C.ar    1  UNL1        0.1022
     32 N         142.8224  141.6167  168.5270 N.ar    1  UNL1       -0.2247
     33 C         141.4765  141.2185  169.0561 C.ar    1  UNL1        0.1709
     34 H         137.8463  138.9688  168.5415 H       1  UNL1        0.1438
     35 H         137.3019  139.5831  170.0362 H       1  UNL1        0.1438
     36 C         139.3825  142.0701  159.4726 C.1     1  UNL1       -0.0595
     37 C         139.9466  143.2100  158.6774 C.1     1  UNL1       -0.0566
     38 C         140.5107  144.3499  157.8821 C.ar    1  UNL1        0.0815
     39 C         141.8512  144.9907  158.0884 C.ar    1  UNL1        0.1299
     40 N         142.0024  146.0859  157.0748 N.ar    1  UNL1       -0.1669
     41 N         140.7553  146.1221  156.2419 N.ar    1  UNL1       -0.2467
     42 C         140.4787  147.0655  155.1091 C.3     1  UNL1        0.1538
     43 C         139.8335  145.0491  156.7409 C.ar    1  UNL1        0.1049
@<TRIPOS>BOND
     1    19    18    1
     2    19    20    1
     3    20    21   am
     4    21    22    2
     5    21    24    1
     6    24    25   ar
     7    25    26    1
     8    25    27   ar
     9    27    28   ar
    10    28    29   ar
    11    29    30   ar
    12    30    31   ar
    13    31    32   ar
    14    32    33   ar
    15    19     1    1
    16     1     2   ar
    17     2     3   ar
    18     3     4   ar
    19     4     5   ar
    20     5     6   ar
    21     6     7   ar
    22     7    36    1
    23    36    37    3
    24    37    38    1
    25    38    39   ar
    26    39    40   ar
    27    40    41   ar
    28    41    42    1
    29    41    43   ar
    30     7     8   ar
    31     8     9   ar
    32     9    10    2
    33     9    11   ar
    34    11    12    1
    35    12    13   ar
    36    13    14   ar
    37    14    15   ar
    38    15    16   ar
    39    16    17   ar
    40    33    24   ar
    41    11     1   ar
    42    17    12   ar
    43    33    28   ar
    44     8     3   ar
    45    43    38   ar
    46    20    23    1
    47    26    34    1
    48    26    35    1
