@<TRIPOS>MOLECULE
*****
 35 38 0 0 0
SMALL
GASTEIGER

@<TRIPOS>ATOM
      1 S         143.1351  140.6873  164.7925 S.O2    1  UNL1        0.0134
      2 O         144.4721  140.8368  164.6801 O.2     1  UNL1       -0.1683
      3 O         141.6537  140.4560  164.7463 O.2     1  UNL1       -0.1683
      4 C         143.0101  141.2084  166.1935 C.3     1  UNL1        0.1845
      5 C         142.7716  139.7685  166.5399 C.3     1  UNL1        0.0313
      6 C         142.5545  139.6780  168.0213 C.3     1  UNL1        0.0024
      7 C         142.6588  141.0619  168.5906 C.3     1  UNL1        0.0048
      8 C         142.7899  142.4952  169.0132 C.3     1  UNL1        0.0172
      9 C         142.6391  142.8678  170.4583 C.3     1  UNL1        0.0686
     10 N         142.3572  141.8071  171.4808 N.3     1  UNL1       -0.2975
     11 C         142.2261  140.3739  171.0582 C.3     1  UNL1        0.0686
     12 C         142.3769  140.0013  169.6131 C.3     1  UNL1        0.0172
     13 C         142.9403  142.0078  167.4609 C.3     1  UNL1        0.0314
     14 H         141.4800  142.0616  171.9349 H       1  UNL1        0.1232
     15 C         143.2746  142.5393  165.5543 C.2     1  UNL1        0.2644
     16 O         144.4077  143.2687  165.6355 O.2     1  UNL1       -0.2713
     17 N         142.2144  143.1947  164.7198 N.am    1  UNL1       -0.1956
     18 O         142.4791  144.5256  164.0806 O.3     1  UNL1       -0.2951
     19 H         141.3448  142.7512  164.5915 H       1  UNL1        0.1823
     20 H         143.3757  144.8196  164.3054 H       1  UNL1        0.2414
     21 C         143.5102  139.1241  160.5895 C.ar    1  UNL1        0.1454
     22 C         143.2865  138.1719  161.7267 C.ar    1  UNL1        0.0388
     23 C         143.1615  138.6930  163.1277 C.ar    1  UNL1        0.0215
     24 C         143.2601  140.1662  163.3915 C.ar    1  UNL1        0.1063
     25 C         143.4839  141.1185  162.2543 C.ar    1  UNL1        0.0215
     26 C         143.6089  140.5974  160.8533 C.ar    1  UNL1        0.0388
     27 O         143.6353  138.6030  159.1885 O.3     1  UNL1       -0.4535
     28 C         139.9500  137.4366  156.8844 C.ar    1  UNL1        0.1389
     29 C         139.8390  138.3671  158.0557 C.ar    1  UNL1        0.0400
     30 C         141.0674  138.7559  158.8237 C.ar    1  UNL1        0.0406
     31 C         142.4068  138.2142  158.4204 C.ar    1  UNL1        0.1455
     32 C         142.5178  137.2837  157.2492 C.ar    1  UNL1        0.0406
     33 C         141.2894  136.8949  156.4812 C.ar    1  UNL1        0.0400
     34 C         138.6678  137.2568  154.6320 C.3     1  UNL1        0.2525
     35 O         138.7217  137.0478  156.1164 O.3     1  UNL1       -0.4714
@<TRIPOS>BOND
     1    34    35    1
     2    35    28    1
     3    28    29   ar
     4    29    30   ar
     5    30    31   ar
     6    31    27    1
     7    27    21    1
     8    21    22   ar
     9    22    23   ar
    10    23    24   ar
    11    24     1    1
    12     1     2    2
    13     1     3    2
    14     1     4    1
    15     4    15    1
    16    15    16    2
    17    15    17   am
    18    17    18    1
    19     4     5    1
    20     5     6    1
    21     6     7    1
    22     7     8    1
    23     8     9    1
    24     9    10    1
    25    10    11    1
    26    11    12    1
    27     7    13    1
    28    24    25   ar
    29    25    26   ar
    30    31    32   ar
    31    32    33   ar
    32    33    28   ar
    33    26    21   ar
    34    13     4    1
    35    12     7    1
    36    17    19    1
    37    18    20    1
    38    10    14    1
@<TRIPOS>MOLECULE
*****
 35 38 0 0 0
SMALL
GASTEIGER

@<TRIPOS>ATOM
      1 S         139.1063  140.0232  164.9917 S.O2    1  UNL1        0.0134
      2 O         137.7730  140.2294  165.0392 O.2     1  UNL1       -0.1683
      3 O         140.5680  139.7811  164.7574 O.2     1  UNL1       -0.1683
      4 C         139.3581  140.1146  166.4676 C.3     1  UNL1        0.1845
      5 C         139.9642  141.4427  166.1226 C.3     1  UNL1        0.0313
      6 C         140.4529  142.0733  167.3928 C.3     1  UNL1        0.0024
      7 C         140.1488  141.1350  168.5230 C.3     1  UNL1        0.0048
      8 C         139.7824  140.1007  169.5457 C.3     1  UNL1        0.0172
      9 C         140.0993  140.3323  170.9934 C.3     1  UNL1        0.0686
     10 N         140.7826  141.5981  171.4184 N.3     1  UNL1       -0.2975
     11 C         141.1490  142.6324  170.3958 C.3     1  UNL1        0.0686
     12 C         140.8321  142.4008  168.9480 C.3     1  UNL1        0.0172
     13 C         139.4722  139.9245  167.9512 C.3     1  UNL1        0.0314
     14 H         141.6482  141.3238  171.8830 H       1  UNL1        0.1232
     15 C         138.6994  138.7676  166.5042 C.2     1  UNL1        0.2644
     16 O         139.0732  137.6617  165.8260 O.2     1  UNL1       -0.2713
     17 N         137.4899  138.5471  167.3636 N.am    1  UNL1       -0.1956
     18 O         136.8313  137.1999  167.4001 O.3     1  UNL1       -0.2951
     19 H         137.1283  139.2866  167.9036 H       1  UNL1        0.1823
     20 H         137.3090  136.5905  166.8159 H       1  UNL1        0.2414
     21 C         138.3508  139.7487  160.5642 C.ar    1  UNL1        0.1454
     22 C         137.6864  140.8229  161.3732 C.ar    1  UNL1        0.0388
     23 C         137.9382  140.9144  162.8491 C.ar    1  UNL1        0.0215
     24 C         138.8545  139.9317  163.5159 C.ar    1  UNL1        0.1063
     25 C         139.5189  138.8575  162.7069 C.ar    1  UNL1        0.0215
     26 C         139.2671  138.7660  161.2310 C.ar    1  UNL1        0.0388
     27 O         138.0990  139.6573  159.0883 O.3     1  UNL1       -0.4535
     28 C         138.5717  143.3042  156.4947 C.ar    1  UNL1        0.1389
     29 C         137.3176  142.4852  156.4157 C.ar    1  UNL1        0.0400
     30 C         137.1600  141.2696  157.2802 C.ar    1  UNL1        0.0406
     31 C         138.2566  140.8730  158.2237 C.ar    1  UNL1        0.1455
     32 C         139.5108  141.6920  158.3027 C.ar    1  UNL1        0.0406
     33 C         139.6683  142.9076  157.4382 C.ar    1  UNL1        0.0400
     34 C         137.5454  145.0778  154.8976 C.3     1  UNL1        0.2525
     35 O         138.7294  144.5198  155.6302 O.3     1  UNL1       -0.4714
@<TRIPOS>BOND
     1    34    35    1
     2    35    28    1
     3    28    29   ar
     4    29    30   ar
     5    30    31   ar
     6    31    27    1
     7    27    21    1
     8    21    22   ar
     9    22    23   ar
    10    23    24   ar
    11    24     1    1
    12     1     2    2
    13     1     3    2
    14     1     4    1
    15     4    15    1
    16    15    16    2
    17    15    17   am
    18    17    18    1
    19     4     5    1
    20     5     6    1
    21     6     7    1
    22     7     8    1
    23     8     9    1
    24     9    10    1
    25    10    11    1
    26    11    12    1
    27     7    13    1
    28    24    25   ar
    29    25    26   ar
    30    31    32   ar
    31    32    33   ar
    32    33    28   ar
    33    26    21   ar
    34    13     4    1
    35    12     7    1
    36    17    19    1
    37    18    20    1
    38    10    14    1
@<TRIPOS>MOLECULE
*****
 35 38 0 0 0
SMALL
GASTEIGER

@<TRIPOS>ATOM
      1 S         141.5843  139.4445  164.8370 S.O2    1  UNL1        0.0134
      2 O         141.4051  140.7047  164.3872 O.2     1  UNL1       -0.1683
      3 O         141.8421  138.0043  165.1679 O.2     1  UNL1       -0.1683
      4 C         141.1189  139.6842  166.2426 C.3     1  UNL1        0.1845
      5 C         142.5857  139.7189  166.5550 C.3     1  UNL1        0.0313
      6 C         142.7405  139.9623  168.0270 C.3     1  UNL1        0.0024
      7 C         141.3694  140.0781  168.6245 C.3     1  UNL1        0.0048
      8 C         139.9423  140.1704  169.0771 C.3     1  UNL1        0.0172
      9 C         139.6285  140.4150  170.5233 C.3     1  UNL1        0.0686
     10 N         140.7418  140.5674  171.5169 N.3     1  UNL1       -0.2975
     11 C         142.1689  140.4751  171.0643 C.3     1  UNL1        0.0686
     12 C         142.4827  140.2305  169.6181 C.3     1  UNL1        0.0172
     13 C         140.3672  139.9062  167.5217 C.3     1  UNL1        0.0314
     14 H         140.6089  139.8420  172.2216 H       1  UNL1        0.1232
     15 C         139.7495  139.5994  165.6365 C.2     1  UNL1        0.2644
     16 O         139.1226  138.4871  165.1980 O.2     1  UNL1       -0.2713
     17 N         138.9264  140.8417  165.4662 N.am    1  UNL1       -0.1956
     18 O         137.5569  140.7568  164.8600 O.3     1  UNL1       -0.2951
     19 H         139.2849  141.7128  165.7522 H       1  UNL1        0.1823
     20 H         137.3592  139.8340  164.6359 H       1  UNL1        0.2414
     21 C         142.9805  138.7254  160.6200 C.ar    1  UNL1        0.1454
     22 C         142.2168  137.6601  161.3491 C.ar    1  UNL1        0.0388
     23 C         141.7514  137.8998  162.7548 C.ar    1  UNL1        0.0215
     24 C         142.0497  139.2048  163.4313 C.ar    1  UNL1        0.1063
     25 C         142.8134  140.2702  162.7022 C.ar    1  UNL1        0.0215
     26 C         143.2788  140.0305  161.2965 C.ar    1  UNL1        0.0388
     27 O         143.4459  138.4857  159.2143 O.3     1  UNL1       -0.4535
     28 C         140.5543  136.9785  156.1130 C.ar    1  UNL1        0.1389
     29 C         140.2188  138.1960  156.9224 C.ar    1  UNL1        0.0400
     30 C         141.1826  138.6983  157.9562 C.ar    1  UNL1        0.0406
     31 C         142.4820  137.9833  158.1805 C.ar    1  UNL1        0.1455
     32 C         142.8176  136.7658  157.3710 C.ar    1  UNL1        0.0406
     33 C         141.8537  136.2635  156.3373 C.ar    1  UNL1        0.0400
     34 C         139.3659  137.2593  153.8198 C.3     1  UNL1        0.2525
     35 O         139.5906  136.4761  155.0793 O.3     1  UNL1       -0.4714
@<TRIPOS>BOND
     1    34    35    1
     2    35    28    1
     3    28    29   ar
     4    29    30   ar
     5    30    31   ar
     6    31    27    1
     7    27    21    1
     8    21    22   ar
     9    22    23   ar
    10    23    24   ar
    11    24     1    1
    12     1     2    2
    13     1     3    2
    14     1     4    1
    15     4    15    1
    16    15    16    2
    17    15    17   am
    18    17    18    1
    19     4     5    1
    20     5     6    1
    21     6     7    1
    22     7     8    1
    23     8     9    1
    24     9    10    1
    25    10    11    1
    26    11    12    1
    27     7    13    1
    28    24    25   ar
    29    25    26   ar
    30    31    32   ar
    31    32    33   ar
    32    33    28   ar
    33    26    21   ar
    34    13     4    1
    35    12     7    1
    36    17    19    1
    37    18    20    1
    38    10    14    1
@<TRIPOS>MOLECULE
*****
 35 38 0 0 0
SMALL
GASTEIGER

@<TRIPOS>ATOM
      1 S         142.4235  143.5465  161.8222 S.O2    1  UNL1        0.0134
      2 O         141.3192  142.7999  162.0359 O.2     1  UNL1       -0.1683
      3 O         143.6895  144.3487  161.7615 O.2     1  UNL1       -0.1683
      4 C         142.1807  143.8196  160.3674 C.3     1  UNL1        0.1845
      5 C         143.3674  142.9251  160.1631 C.3     1  UNL1        0.0313
      6 C         143.6206  142.8204  158.6883 C.3     1  UNL1        0.0024
      7 C         142.5903  143.6503  157.9811 C.3     1  UNL1        0.0048
      8 C         141.5030  144.5153  157.4159 C.3     1  UNL1        0.0172
      9 C         141.3836  144.6959  155.9316 C.3     1  UNL1        0.0686
     10 N         142.3516  144.0115  155.0125 N.3     1  UNL1       -0.2975
     11 C         143.4390  143.1466  155.5777 C.3     1  UNL1        0.0686
     12 C         143.5583  142.9660  157.0620 C.3     1  UNL1        0.0172
     13 C         141.7005  144.2678  159.0188 C.3     1  UNL1        0.0314
     14 H         142.8099  144.7434  154.4696 H       1  UNL1        0.1232
     15 C         141.0448  144.6570  160.8757 C.2     1  UNL1        0.2644
     16 O         139.7430  144.5543  160.5332 O.2     1  UNL1       -0.2713
     17 N         141.3039  145.7459  161.8742 N.am    1  UNL1       -0.1956
     18 O         140.1679  146.5833  162.3825 O.3     1  UNL1       -0.2951
     19 H         142.2196  145.9111  162.1960 H       1  UNL1        0.1823
     20 H         139.3407  146.2919  161.9680 H       1  UNL1        0.2414
     21 C         143.1517  142.7271  166.1866 C.ar    1  UNL1        0.1454
     22 C         144.2553  143.2767  165.3323 C.ar    1  UNL1        0.0388
     23 C         144.0126  143.5498  163.8775 C.ar    1  UNL1        0.0215
     24 C         142.6662  143.2733  163.2770 C.ar    1  UNL1        0.1063
     25 C         141.5625  142.7237  164.1312 C.ar    1  UNL1        0.0215
     26 C         141.8053  142.4505  165.5860 C.ar    1  UNL1        0.0388
     27 O         143.3944  142.4539  167.6414 O.3     1  UNL1       -0.4535
     28 C         140.2206  140.4358  170.1120 C.ar    1  UNL1        0.1389
     29 C         140.1821  141.9217  169.9103 C.ar    1  UNL1        0.0400
     30 C         141.2401  142.5943  169.0868 C.ar    1  UNL1        0.0406
     31 C         142.3365  141.7812  168.4649 C.ar    1  UNL1        0.1455
     32 C         142.3749  140.2953  168.6666 C.ar    1  UNL1        0.0406
     33 C         141.3170  139.6226  169.4902 C.ar    1  UNL1        0.0400
     34 C         137.7540  139.6828  170.4265 C.3     1  UNL1        0.2525
     35 O         139.1627  139.7631  170.9355 O.3     1  UNL1       -0.4714
@<TRIPOS>BOND
     1    34    35    1
     2    35    28    1
     3    28    29   ar
     4    29    30   ar
     5    30    31   ar
     6    31    27    1
     7    27    21    1
     8    21    22   ar
     9    22    23   ar
    10    23    24   ar
    11    24     1    1
    12     1     2    2
    13     1     3    2
    14     1     4    1
    15     4    15    1
    16    15    16    2
    17    15    17   am
    18    17    18    1
    19     4     5    1
    20     5     6    1
    21     6     7    1
    22     7     8    1
    23     8     9    1
    24     9    10    1
    25    10    11    1
    26    11    12    1
    27     7    13    1
    28    24    25   ar
    29    25    26   ar
    30    31    32   ar
    31    32    33   ar
    32    33    28   ar
    33    26    21   ar
    34    13     4    1
    35    12     7    1
    36    17    19    1
    37    18    20    1
    38    10    14    1
@<TRIPOS>MOLECULE
*****
 35 38 0 0 0
SMALL
GASTEIGER

@<TRIPOS>ATOM
      1 S         139.8270  141.0211  164.7401 S.O2    1  UNL1        0.0134
      2 O         138.5481  141.4352  164.6158 O.2     1  UNL1       -0.1683
      3 O         141.2307  140.4931  164.7090 O.2     1  UNL1       -0.1683
      4 C         140.0551  141.5458  166.1267 C.3     1  UNL1        0.1845
      5 C         139.8102  140.1235  166.5356 C.3     1  UNL1        0.0313
      6 C         139.9282  140.0437  168.0288 C.3     1  UNL1        0.0024
      7 C         140.2461  141.4166  168.5428 C.3     1  UNL1        0.0048
      8 C         140.5599  142.8374  168.9073 C.3     1  UNL1        0.0172
      9 C         140.7636  143.2155  170.3445 C.3     1  UNL1        0.0686
     10 N         140.6533  142.1728  171.4172 N.3     1  UNL1       -0.2975
     11 C         140.3394  140.7521  171.0527 C.3     1  UNL1        0.0686
     12 C         140.1358  140.3740  169.6155 C.3     1  UNL1        0.0172
     13 C         140.3245  142.3450  167.3672 C.3     1  UNL1        0.0314
     14 H         139.9194  142.4824  172.0544 H       1  UNL1        0.1232
     15 C         140.2523  142.8584  165.4280 C.2     1  UNL1        0.2644
     16 O         141.3351  143.2485  164.7223 O.2     1  UNL1       -0.2713
     17 N         139.1751  143.9013  165.4729 N.am    1  UNL1       -0.1956
     18 O         139.3724  145.2139  164.7741 O.3     1  UNL1       -0.2951
     19 H         138.3386  143.7243  165.9609 H       1  UNL1        0.1823
     20 H         140.2428  145.2246  164.3460 H       1  UNL1        0.2414
     21 C         139.1427  139.4470  160.5804 C.ar    1  UNL1        0.1454
     22 C         138.9655  138.5420  161.7633 C.ar    1  UNL1        0.0388
     23 C         139.1937  139.0667  163.1499 C.ar    1  UNL1        0.0215
     24 C         139.5989  140.4964  163.3535 C.ar    1  UNL1        0.1063
     25 C         139.7761  141.4015  162.1706 C.ar    1  UNL1        0.0215
     26 C         139.5480  140.8768  160.7840 C.ar    1  UNL1        0.0388
     27 O         138.9146  138.9223  159.1938 O.3     1  UNL1       -0.4535
     28 C         142.3519  137.2259  156.8362 C.ar    1  UNL1        0.1389
     29 C         142.6067  137.9124  158.1454 C.ar    1  UNL1        0.0400
     30 C         141.4609  138.4778  158.9312 C.ar    1  UNL1        0.0406
     31 C         140.0604  138.3568  158.4079 C.ar    1  UNL1        0.1455
     32 C         139.8055  137.6703  157.0988 C.ar    1  UNL1        0.0406
     33 C         140.9513  137.1049  156.3130 C.ar    1  UNL1        0.0400
     34 C         143.7508  135.1820  156.0518 C.3     1  UNL1        0.2525
     35 O         143.4975  136.6605  156.0504 O.3     1  UNL1       -0.4714
@<TRIPOS>BOND
     1    34    35    1
     2    35    28    1
     3    28    29   ar
     4    29    30   ar
     5    30    31   ar
     6    31    27    1
     7    27    21    1
     8    21    22   ar
     9    22    23   ar
    10    23    24   ar
    11    24     1    1
    12     1     2    2
    13     1     3    2
    14     1     4    1
    15     4    15    1
    16    15    16    2
    17    15    17   am
    18    17    18    1
    19     4     5    1
    20     5     6    1
    21     6     7    1
    22     7     8    1
    23     8     9    1
    24     9    10    1
    25    10    11    1
    26    11    12    1
    27     7    13    1
    28    24    25   ar
    29    25    26   ar
    30    31    32   ar
    31    32    33   ar
    32    33    28   ar
    33    26    21   ar
    34    13     4    1
    35    12     7    1
    36    17    19    1
    37    18    20    1
    38    10    14    1
@<TRIPOS>MOLECULE
*****
 35 38 0 0 0
SMALL
GASTEIGER

@<TRIPOS>ATOM
      1 S         139.1278  140.2048  164.9222 S.O2    1  UNL1        0.0134
      2 O         137.7879  140.3502  165.0001 O.2     1  UNL1       -0.1683
      3 O         140.5939  140.0350  164.6541 O.2     1  UNL1       -0.1683
      4 C         139.4038  140.2615  166.3955 C.3     1  UNL1        0.1845
      5 C         139.9444  141.6252  166.0820 C.3     1  UNL1        0.0313
      6 C         140.4294  142.2372  167.3627 C.3     1  UNL1        0.0024
      7 C         140.1886  141.2518  168.4678 C.3     1  UNL1        0.0048
      8 C         139.8876  140.1710  169.4634 C.3     1  UNL1        0.0172
      9 C         140.2219  140.3715  170.9119 C.3     1  UNL1        0.0686
     10 N         140.8573  141.6526  171.3647 N.3     1  UNL1       -0.2975
     11 C         141.1583  142.7333  170.3690 C.3     1  UNL1        0.0686
     12 C         140.8239  142.5329  168.9206 C.3     1  UNL1        0.0172
     13 C         139.5547  140.0308  167.8700 C.3     1  UNL1        0.0314
     14 H         141.7429  141.4027  171.8047 H       1  UNL1        0.1232
     15 C         138.8055  138.8861  166.4010 C.2     1  UNL1        0.2644
     16 O         139.2462  137.8057  165.7219 O.2     1  UNL1       -0.2713
     17 N         137.5851  138.6022  167.2255 N.am    1  UNL1       -0.1956
     18 O         136.9869  137.2267  167.2310 O.3     1  UNL1       -0.2951
     19 H         137.1766  139.3188  167.7631 H       1  UNL1        0.1823
     20 H         137.5066  136.6458  166.6536 H       1  UNL1        0.2414
     21 C         138.2998  140.0345  160.5024 C.ar    1  UNL1        0.1454
     22 C         139.0385  141.2039  161.0825 C.ar    1  UNL1        0.0388
     23 C         139.3145  141.2607  162.5558 C.ar    1  UNL1        0.0215
     24 C         138.8518  140.1480  163.4489 C.ar    1  UNL1        0.1063
     25 C         138.1130  138.9785  162.8688 C.ar    1  UNL1        0.0215
     26 C         137.8370  138.9217  161.3955 C.ar    1  UNL1        0.0388
     27 O         138.0238  139.9777  159.0291 O.3     1  UNL1       -0.4535
     28 C         141.2865  138.7739  156.1733 C.ar    1  UNL1        0.1389
     29 C         140.4080  139.9476  155.8565 C.ar    1  UNL1        0.0400
     30 C         139.3204  140.3489  156.8084 C.ar    1  UNL1        0.0406
     31 C         139.1114  139.5764  158.0771 C.ar    1  UNL1        0.1455
     32 C         139.9900  138.4026  158.3939 C.ar    1  UNL1        0.0406
     33 C         141.0776  138.0014  157.4420 C.ar    1  UNL1        0.0400
     34 C         143.6128  137.7022  155.7374 C.3     1  UNL1        0.2525
     35 O         142.3741  138.3726  155.2214 O.3     1  UNL1       -0.4714
@<TRIPOS>BOND
     1    34    35    1
     2    35    28    1
     3    28    29   ar
     4    29    30   ar
     5    30    31   ar
     6    31    27    1
     7    27    21    1
     8    21    22   ar
     9    22    23   ar
    10    23    24   ar
    11    24     1    1
    12     1     2    2
    13     1     3    2
    14     1     4    1
    15     4    15    1
    16    15    16    2
    17    15    17   am
    18    17    18    1
    19     4     5    1
    20     5     6    1
    21     6     7    1
    22     7     8    1
    23     8     9    1
    24     9    10    1
    25    10    11    1
    26    11    12    1
    27     7    13    1
    28    24    25   ar
    29    25    26   ar
    30    31    32   ar
    31    32    33   ar
    32    33    28   ar
    33    26    21   ar
    34    13     4    1
    35    12     7    1
    36    17    19    1
    37    18    20    1
    38    10    14    1
@<TRIPOS>MOLECULE
*****
 35 38 0 0 0
SMALL
GASTEIGER

@<TRIPOS>ATOM
      1 S         140.4969  139.7920  164.1081 S.O2    1  UNL1        0.0134
      2 O         139.7768  138.6595  163.9624 O.2     1  UNL1       -0.1683
      3 O         141.3145  141.0495  164.0877 O.2     1  UNL1       -0.1683
      4 C         140.4045  139.8764  165.6029 C.3     1  UNL1        0.1845
      5 C         141.8672  139.5474  165.5546 C.3     1  UNL1        0.0313
      6 C         142.3770  139.4935  166.9642 C.3     1  UNL1        0.0024
      7 C         141.2294  139.7892  167.8839 C.3     1  UNL1        0.0048
      8 C         139.9931  140.0993  168.6747 C.3     1  UNL1        0.0172
      9 C         140.0540  140.1496  170.1725 C.3     1  UNL1        0.0686
     10 N         141.3511  139.8898  170.8796 N.3     1  UNL1       -0.2975
     11 C         142.5874  139.5797  170.0889 C.3     1  UNL1        0.0686
     12 C         142.5265  139.5294  168.5910 C.3     1  UNL1        0.0172
     13 C         140.0103  140.0259  167.0425 C.3     1  UNL1        0.0314
     14 H         141.1934  139.0974  171.5024 H       1  UNL1        0.1232
     15 C         138.9612  140.1878  165.3388 C.2     1  UNL1        0.2644
     16 O         137.8895  139.4671  165.7320 O.2     1  UNL1       -0.2713
     17 N         138.5887  141.4149  164.5607 N.am    1  UNL1       -0.1956
     18 O         137.1453  141.7262  164.2967 O.3     1  UNL1       -0.2951
     19 H         139.2916  142.0160  164.2233 H       1  UNL1        0.1823
     20 H         136.5883  141.0389  164.6947 H       1  UNL1        0.2414
     21 C         140.7741  139.5388  159.6239 C.ar    1  UNL1        0.1454
     22 C         141.7585  140.3716  160.3903 C.ar    1  UNL1        0.0388
     23 C         141.6661  140.4560  161.8851 C.ar    1  UNL1        0.0215
     24 C         140.5893  139.7076  162.6134 C.ar    1  UNL1        0.1063
     25 C         139.6049  138.8748  161.8469 C.ar    1  UNL1        0.0215
     26 C         139.6973  138.7905  160.3522 C.ar    1  UNL1        0.0388
     27 O         140.8665  139.4545  158.1291 O.3     1  UNL1       -0.4535
     28 C         142.0288  135.5777  156.1618 C.ar    1  UNL1        0.1389
     29 C         140.7300  136.2389  155.8071 C.ar    1  UNL1        0.0400
     30 C         140.3426  137.5311  156.4628 C.ar    1  UNL1        0.0406
     31 C         141.2540  138.1622  157.4733 C.ar    1  UNL1        0.1455
     32 C         142.5529  137.5010  157.8281 C.ar    1  UNL1        0.0406
     33 C         142.9403  136.2088  157.1723 C.ar    1  UNL1        0.0400
     34 C         141.4063  133.1862  155.3600 C.3     1  UNL1        0.2525
     35 O         142.4163  134.2855  155.5061 O.3     1  UNL1       -0.4714
@<TRIPOS>BOND
     1    34    35    1
     2    35    28    1
     3    28    29   ar
     4    29    30   ar
     5    30    31   ar
     6    31    27    1
     7    27    21    1
     8    21    22   ar
     9    22    23   ar
    10    23    24   ar
    11    24     1    1
    12     1     2    2
    13     1     3    2
    14     1     4    1
    15     4    15    1
    16    15    16    2
    17    15    17   am
    18    17    18    1
    19     4     5    1
    20     5     6    1
    21     6     7    1
    22     7     8    1
    23     8     9    1
    24     9    10    1
    25    10    11    1
    26    11    12    1
    27     7    13    1
    28    24    25   ar
    29    25    26   ar
    30    31    32   ar
    31    32    33   ar
    32    33    28   ar
    33    26    21   ar
    34    13     4    1
    35    12     7    1
    36    17    19    1
    37    18    20    1
    38    10    14    1
@<TRIPOS>MOLECULE
*****
 35 38 0 0 0
SMALL
GASTEIGER

@<TRIPOS>ATOM
      1 S         141.1673  142.8063  165.1641 S.O2    1  UNL1        0.0134
      2 O         142.2572  143.5894  165.0179 O.2     1  UNL1       -0.1683
      3 O         139.8971  142.0083  165.1690 O.2     1  UNL1       -0.1683
      4 C         141.5752  142.1649  166.4573 C.3     1  UNL1        0.1845
      5 C         140.4998  143.0307  167.0440 C.3     1  UNL1        0.0313
      6 C         140.4501  142.7714  168.5206 C.3     1  UNL1        0.0024
      7 C         141.4947  141.7454  168.8465 C.3     1  UNL1        0.0048
      8 C         142.5745  140.7187  169.0194 C.3     1  UNL1        0.0172
      9 C         142.8716  140.1648  170.3813 C.3     1  UNL1        0.0686
     10 N         142.0889  140.6376  171.5704 N.3     1  UNL1       -0.2975
     11 C         141.0091  141.6643  171.3975 C.3     1  UNL1        0.0686
     12 C         140.7120  142.2181  170.0356 C.3     1  UNL1        0.0172
     13 C         142.1901  141.3705  167.5713 C.3     1  UNL1        0.0314
     14 H         142.7623  141.0267  172.2304 H       1  UNL1        0.1232
     15 C         142.5653  141.4332  165.6004 C.2     1  UNL1        0.2644
     16 O         143.9013  141.6229  165.5599 O.2     1  UNL1       -0.2713
     17 N         142.0969  140.3614  164.6614 N.am    1  UNL1       -0.1956
     18 O         143.0871  139.6297  163.8045 O.3     1  UNL1       -0.2951
     19 H         141.1395  140.1380  164.6076 H       1  UNL1        0.1823
     20 H         143.9788  139.9691  163.9792 H       1  UNL1        0.2414
     21 C         139.9437  144.7303  161.2847 C.ar    1  UNL1        0.1454
     22 C         140.8565  145.4571  162.2272 C.ar    1  UNL1        0.0388
     23 C         141.2644  144.8158  163.5203 C.ar    1  UNL1        0.0215
     24 C         140.7595  143.4476  163.8710 C.ar    1  UNL1        0.1063
     25 C         139.8466  142.7207  162.9284 C.ar    1  UNL1        0.0215
     26 C         139.4388  143.3621  161.6353 C.ar    1  UNL1        0.0388
     27 O         139.5359  145.3717  159.9915 O.3     1  UNL1       -0.4535
     28 C         142.1939  145.0344  156.3760 C.ar    1  UNL1        0.1389
     29 C         142.4294  144.1509  157.5651 C.ar    1  UNL1        0.0400
     30 C         141.5435  144.2634  158.7702 C.ar    1  UNL1        0.0406
     31 C         140.4219  145.2593  158.7863 C.ar    1  UNL1        0.1455
     32 C         140.1863  146.1427  157.5972 C.ar    1  UNL1        0.0406
     33 C         141.0723  146.0303  156.3920 C.ar    1  UNL1        0.0400
     34 C         142.5396  145.2475  153.8099 C.3     1  UNL1        0.2525
     35 O         143.0798  144.9220  155.1709 O.3     1  UNL1       -0.4714
@<TRIPOS>BOND
     1    34    35    1
     2    35    28    1
     3    28    29   ar
     4    29    30   ar
     5    30    31   ar
     6    31    27    1
     7    27    21    1
     8    21    22   ar
     9    22    23   ar
    10    23    24   ar
    11    24     1    1
    12     1     2    2
    13     1     3    2
    14     1     4    1
    15     4    15    1
    16    15    16    2
    17    15    17   am
    18    17    18    1
    19     4     5    1
    20     5     6    1
    21     6     7    1
    22     7     8    1
    23     8     9    1
    24     9    10    1
    25    10    11    1
    26    11    12    1
    27     7    13    1
    28    24    25   ar
    29    25    26   ar
    30    31    32   ar
    31    32    33   ar
    32    33    28   ar
    33    26    21   ar
    34    13     4    1
    35    12     7    1
    36    17    19    1
    37    18    20    1
    38    10    14    1
@<TRIPOS>MOLECULE
*****
 35 38 0 0 0
SMALL
GASTEIGER

@<TRIPOS>ATOM
      1 S         139.5551  141.3293  164.6855 S.O2    1  UNL1        0.0134
      2 O         138.3666  141.9655  164.6139 O.2     1  UNL1       -0.1683
      3 O         140.8474  140.5735  164.5909 O.2     1  UNL1       -0.1683
      4 C         139.8664  141.6833  166.1095 C.3     1  UNL1        0.1845
      5 C         139.5736  140.2351  166.3685 C.3     1  UNL1        0.0313
      6 C         139.7516  139.9814  167.8361 C.3     1  UNL1        0.0024
      7 C         140.1544  141.2729  168.4843 C.3     1  UNL1        0.0048
      8 C         140.5491  142.6289  168.9895 C.3     1  UNL1        0.0172
      9 C         140.8314  142.8327  170.4485 C.3     1  UNL1        0.0686
     10 N         140.7190  141.6804  171.4023 N.3     1  UNL1       -0.2975
     11 C         140.3243  140.3244  170.8970 C.3     1  UNL1        0.0686
     12 C         140.0420  140.1206  169.4380 C.3     1  UNL1        0.0172
     13 C         140.2254  142.3247  167.4172 C.3     1  UNL1        0.0314
     14 H         140.0282  141.9456  172.1043 H       1  UNL1        0.1232
     15 C         140.0942  143.0575  165.5530 C.2     1  UNL1        0.2644
     16 O         139.3120  144.1441  165.7263 O.2     1  UNL1       -0.2713
     17 N         141.2990  143.3322  164.7028 N.am    1  UNL1       -0.1956
     18 O         141.5266  144.7065  164.1463 O.3     1  UNL1       -0.2951
     19 H         141.9404  142.6106  164.5100 H       1  UNL1        0.1823
     20 H         140.8076  145.2930  164.4290 H       1  UNL1        0.2414
     21 C         138.6211  140.2671  160.4137 C.ar    1  UNL1        0.1454
     22 C         140.0468  140.4174  160.8546 C.ar    1  UNL1        0.0388
     23 C         140.3582  140.7715  162.2786 C.ar    1  UNL1        0.0215
     24 C         139.2437  140.9752  163.2616 C.ar    1  UNL1        0.1063
     25 C         137.8179  140.8250  162.8207 C.ar    1  UNL1        0.0215
     26 C         137.5066  140.4709  161.3967 C.ar    1  UNL1        0.0388
     27 O         138.3097  139.9131  158.9897 O.3     1  UNL1       -0.4535
     28 C         137.4353  143.1631  156.0025 C.ar    1  UNL1        0.1389
     29 C         136.5633  141.9440  156.0613 C.ar    1  UNL1        0.0400
     30 C         136.8548  140.8607  157.0570 C.ar    1  UNL1        0.0406
     31 C         138.0183  140.9965  157.9940 C.ar    1  UNL1        0.1455
     32 C         138.8902  142.2156  157.9352 C.ar    1  UNL1        0.0406
     33 C         138.5988  143.2989  156.9395 C.ar    1  UNL1        0.0400
     34 C         137.9158  145.5319  155.0496 C.3     1  UNL1        0.2525
     35 O         137.1439  144.2464  155.0069 O.3     1  UNL1       -0.4714
@<TRIPOS>BOND
     1    34    35    1
     2    35    28    1
     3    28    29   ar
     4    29    30   ar
     5    30    31   ar
     6    31    27    1
     7    27    21    1
     8    21    22   ar
     9    22    23   ar
    10    23    24   ar
    11    24     1    1
    12     1     2    2
    13     1     3    2
    14     1     4    1
    15     4    15    1
    16    15    16    2
    17    15    17   am
    18    17    18    1
    19     4     5    1
    20     5     6    1
    21     6     7    1
    22     7     8    1
    23     8     9    1
    24     9    10    1
    25    10    11    1
    26    11    12    1
    27     7    13    1
    28    24    25   ar
    29    25    26   ar
    30    31    32   ar
    31    32    33   ar
    32    33    28   ar
    33    26    21   ar
    34    13     4    1
    35    12     7    1
    36    17    19    1
    37    18    20    1
    38    10    14    1
