@<TRIPOS>MOLECULE
*****
 31 35 0 0 0
SMALL
GASTEIGER

@<TRIPOS>ATOM
      1 C         142.1066  144.3116  161.8667 C.ar    1  UNL1        0.1180
      2 C         140.8423  145.1111  161.9777 C.ar    1  UNL1        0.0223
      3 C         140.1773  145.6383  160.7409 C.ar    1  UNL1        0.0031
      4 C         140.7766  145.3661  159.3930 C.ar    1  UNL1        0.0174
      5 C         140.1116  145.8934  158.1561 C.ar    1  UNL1       -0.0027
      6 C         140.7109  145.6212  156.8083 C.ar    1  UNL1       -0.0207
      7 C         141.9753  144.8217  156.6973 C.ar    1  UNL1       -0.0027
      8 C         142.6403  144.2945  157.9341 C.ar    1  UNL1        0.0188
      9 C         142.0409  144.5667  159.2820 C.ar    1  UNL1        0.0813
     10 N         142.7059  144.0394  160.5188 N.ar    1  UNL1       -0.2422
     11 C         140.8133  142.1928  163.9852 C.3     1  UNL1        0.0361
     12 C         142.1772  142.8104  164.0773 C.ar    1  UNL1        0.0376
     13 C         143.1860  142.5626  165.1593 C.ar    1  UNL1        0.1190
     14 N         144.4040  143.3833  164.8543 N.ar    1  UNL1       -0.0772
     15 O         144.1479  144.1383  163.5837 O.2     1  UNL1       -0.3522
     16 C         142.7716  143.7843  163.1035 C.ar    1  UNL1        0.1903
     17 C         143.0081  141.6536  166.3392 C.ar    1  UNL1        0.0207
     18 C         142.9074  140.1710  166.1353 C.ar    1  UNL1        0.0025
     19 C         142.7295  139.2620  167.3152 C.ar    1  UNL1        0.0114
     20 C         142.6524  139.8357  168.6989 C.ar    1  UNL1        0.0577
     21 CL        142.4745  138.9268  169.8788 Cl      1  UNL1       -0.0822
     22 C         142.7531  141.3184  168.9029 C.ar    1  UNL1        0.0114
     23 C         142.9310  142.2273  167.7230 C.ar    1  UNL1        0.0025
     24 C         140.0460  146.1485  155.5715 C.3     1  UNL1        0.0437
     25 C         138.8712  147.0739  155.6880 C.3     1  UNL1        0.0768
     26 N         139.0244  148.5269  155.3485 N.3     1  UNL1       -0.2737
     27 C         139.5839  149.0797  154.0712 C.3     1  UNL1        0.0721
     28 C         139.5504  150.5767  154.1600 C.3     1  UNL1        0.0187
     29 C         138.9702  150.9491  155.4923 C.3     1  UNL1        0.0174
     30 C         138.6452  149.6822  156.2268 C.3     1  UNL1        0.0576
     31 C         138.0461  149.5874  157.5986 C.3     1  UNL1        0.0173
@<TRIPOS>BOND
     1    11    12    1
     2    12    13   ar
     3    13    17    1
     4    17    18   ar
     5    18    19   ar
     6    19    20   ar
     7    20    21    1
     8    20    22   ar
     9    22    23   ar
    10    13    14   ar
    11    14    15   ar
    12    15    16   ar
    13    16     1    1
    14     1     2   ar
    15     2     3   ar
    16     3     4   ar
    17     4     5   ar
    18     5     6   ar
    19     6    24    1
    20    24    25    1
    21    25    26    1
    22    26    27    1
    23    27    28    1
    24    28    29    1
    25    29    30    1
    26    30    31    1
    27     6     7   ar
    28     7     8   ar
    29     8     9   ar
    30     9    10   ar
    31    16    12   ar
    32    10     1   ar
    33    23    17   ar
    34     9     4   ar
    35    30    26    1
@<TRIPOS>MOLECULE
*****
 31 35 0 0 0
SMALL
GASTEIGER

@<TRIPOS>ATOM
      1 C         142.8153  138.8750  159.8040 C.ar    1  UNL1        0.1180
      2 C         143.6856  138.6872  161.0111 C.ar    1  UNL1        0.0223
      3 C         143.0676  138.3547  162.3368 C.ar    1  UNL1        0.0031
      4 C         141.5793  138.2101  162.4553 C.ar    1  UNL1        0.0174
      5 C         140.9614  137.8776  163.7811 C.ar    1  UNL1       -0.0027
      6 C         139.4731  137.7329  163.8997 C.ar    1  UNL1       -0.0207
      7 C         138.6028  137.9207  162.6924 C.ar    1  UNL1       -0.0027
      8 C         139.2207  138.2532  161.3667 C.ar    1  UNL1        0.0188
      9 C         140.7090  138.3978  161.2482 C.ar    1  UNL1        0.0813
     10 N         141.3270  138.7303  159.9225 N.ar    1  UNL1       -0.2422
     11 C         144.1323  141.7409  158.9661 C.3     1  UNL1        0.0361
     12 C         144.0386  140.5247  158.0931 C.ar    1  UNL1        0.0376
     13 C         144.5338  140.4124  156.6817 C.ar    1  UNL1        0.1190
     14 N         144.2346  139.0256  156.1944 N.ar    1  UNL1       -0.0772
     15 O         143.5544  138.2810  157.3047 O.2     1  UNL1       -0.3522
     16 C         143.4333  139.2075  158.4782 C.ar    1  UNL1        0.1903
     17 C         145.2097  141.4965  155.8955 C.ar    1  UNL1        0.0207
     18 C         144.4311  142.2886  154.8874 C.ar    1  UNL1        0.0025
     19 C         145.1069  143.3726  154.1012 C.ar    1  UNL1        0.0114
     20 C         146.5613  143.6645  154.3232 C.ar    1  UNL1        0.0577
     21 CL        147.2372  144.7486  153.5370 Cl      1  UNL1       -0.0822
     22 C         147.3400  142.8724  155.3313 C.ar    1  UNL1        0.0114
     23 C         146.6642  141.7884  156.1174 C.ar    1  UNL1        0.0025
     24 C         138.8551  137.4005  165.2254 C.3     1  UNL1        0.0437
     25 C         138.2585  138.4881  166.0687 C.3     1  UNL1        0.0768
     26 N         139.0304  139.7489  166.3227 N.3     1  UNL1       -0.2737
     27 C         139.9962  139.9800  167.4469 C.3     1  UNL1        0.0721
     28 C         140.5347  141.3739  167.3162 C.3     1  UNL1        0.0187
     29 C         139.9017  142.0042  166.1111 C.3     1  UNL1        0.0174
     30 C         138.9720  140.9999  165.4972 C.3     1  UNL1        0.0576
     31 C         138.1315  141.2098  164.2727 C.3     1  UNL1        0.0173
@<TRIPOS>BOND
     1    11    12    1
     2    12    13   ar
     3    13    17    1
     4    17    18   ar
     5    18    19   ar
     6    19    20   ar
     7    20    21    1
     8    20    22   ar
     9    22    23   ar
    10    13    14   ar
    11    14    15   ar
    12    15    16   ar
    13    16     1    1
    14     1     2   ar
    15     2     3   ar
    16     3     4   ar
    17     4     5   ar
    18     5     6   ar
    19     6    24    1
    20    24    25    1
    21    25    26    1
    22    26    27    1
    23    27    28    1
    24    28    29    1
    25    29    30    1
    26    30    31    1
    27     6     7   ar
    28     7     8   ar
    29     8     9   ar
    30     9    10   ar
    31    16    12   ar
    32    10     1   ar
    33    23    17   ar
    34     9     4   ar
    35    30    26    1
@<TRIPOS>MOLECULE
*****
 31 35 0 0 0
SMALL
GASTEIGER

@<TRIPOS>ATOM
      1 C         141.7379  142.9872  162.2849 C.ar    1  UNL1        0.1180
      2 C         141.6206  144.0629  163.3236 C.ar    1  UNL1        0.0223
      3 C         141.1457  143.7228  164.7052 C.ar    1  UNL1        0.0031
      4 C         140.7881  142.3070  165.0480 C.ar    1  UNL1        0.0174
      5 C         140.3131  141.9669  166.4297 C.ar    1  UNL1       -0.0027
      6 C         139.9556  140.5511  166.7725 C.ar    1  UNL1       -0.0207
      7 C         140.0729  139.4753  165.7337 C.ar    1  UNL1       -0.0027
      8 C         140.5478  139.8154  164.3522 C.ar    1  UNL1        0.0188
      9 C         140.9054  141.2312  164.0093 C.ar    1  UNL1        0.0813
     10 N         141.3803  141.5713  162.6278 N.ar    1  UNL1       -0.2422
     11 C         143.6194  141.1135  160.3878 C.3     1  UNL1        0.0361
     12 C         143.0776  142.4660  160.0313 C.ar    1  UNL1        0.0376
     13 C         143.3056  143.1947  158.7402 C.ar    1  UNL1        0.1190
     14 N         142.5816  144.5064  158.8142 N.ar    1  UNL1       -0.0772
     15 O         141.9062  144.5883  160.1511 O.2     1  UNL1       -0.3522
     16 C         142.2128  143.3272  160.9033 C.ar    1  UNL1        0.1903
     17 C         144.1153  142.6989  157.5790 C.ar    1  UNL1        0.0207
     18 C         143.4447  142.3958  156.2720 C.ar    1  UNL1        0.0025
     19 C         144.2544  141.9000  155.1107 C.ar    1  UNL1        0.0114
     20 C         145.7348  141.7073  155.2565 C.ar    1  UNL1        0.0577
     21 CL        146.5445  141.2114  154.0953 Cl      1  UNL1       -0.0822
     22 C         146.4055  142.0104  156.5636 C.ar    1  UNL1        0.0114
     23 C         145.5957  142.5062  157.7247 C.ar    1  UNL1        0.0025
     24 C         139.4807  140.2110  168.1541 C.3     1  UNL1        0.0437
     25 C         140.4743  139.9978  169.2575 C.3     1  UNL1        0.0768
     26 N         141.4942  141.0544  169.5628 N.3     1  UNL1       -0.2737
     27 C         142.9694  140.9552  169.3098 C.3     1  UNL1        0.0721
     28 C         143.6050  142.2352  169.7653 C.3     1  UNL1        0.0187
     29 C         142.5225  143.1255  170.3000 C.3     1  UNL1        0.0174
     30 C         141.2180  142.3957  170.1748 C.3     1  UNL1        0.0576
     31 C         139.8735  142.9160  170.5889 C.3     1  UNL1        0.0173
@<TRIPOS>BOND
     1    11    12    1
     2    12    13   ar
     3    13    17    1
     4    17    18   ar
     5    18    19   ar
     6    19    20   ar
     7    20    21    1
     8    20    22   ar
     9    22    23   ar
    10    13    14   ar
    11    14    15   ar
    12    15    16   ar
    13    16     1    1
    14     1     2   ar
    15     2     3   ar
    16     3     4   ar
    17     4     5   ar
    18     5     6   ar
    19     6    24    1
    20    24    25    1
    21    25    26    1
    22    26    27    1
    23    27    28    1
    24    28    29    1
    25    29    30    1
    26    30    31    1
    27     6     7   ar
    28     7     8   ar
    29     8     9   ar
    30     9    10   ar
    31    16    12   ar
    32    10     1   ar
    33    23    17   ar
    34     9     4   ar
    35    30    26    1
@<TRIPOS>MOLECULE
*****
 31 35 0 0 0
SMALL
GASTEIGER

@<TRIPOS>ATOM
      1 C         142.8388  140.5748  157.5959 C.ar    1  UNL1        0.1180
      2 C         142.1826  141.6646  156.8011 C.ar    1  UNL1        0.0223
      3 C         141.6110  142.8623  157.5001 C.ar    1  UNL1        0.0031
      4 C         141.6955  142.9703  158.9938 C.ar    1  UNL1        0.0174
      5 C         141.1238  144.1681  159.6927 C.ar    1  UNL1       -0.0027
      6 C         141.2084  144.2760  161.1865 C.ar    1  UNL1       -0.0207
      7 C         141.8647  143.1862  161.9812 C.ar    1  UNL1       -0.0027
      8 C         142.4363  141.9884  161.2823 C.ar    1  UNL1        0.0188
      9 C         142.3517  141.8805  159.7885 C.ar    1  UNL1        0.0813
     10 N         142.9234  140.6827  159.0896 N.ar    1  UNL1       -0.2422
     11 C         141.3555  137.6949  157.2010 C.3     1  UNL1        0.0361
     12 C         142.7287  138.0533  156.7154 C.ar    1  UNL1        0.0376
     13 C         143.6612  137.1508  155.9631 C.ar    1  UNL1        0.1190
     14 N         144.9194  137.9168  155.6796 N.ar    1  UNL1       -0.0772
     15 O         144.7644  139.2926  156.2567 O.2     1  UNL1       -0.3522
     16 C         143.4105  139.3770  156.8969 C.ar    1  UNL1        0.1903
     17 C         143.3842  135.7316  155.5642 C.ar    1  UNL1        0.0207
     18 C         142.6706  135.4398  154.2775 C.ar    1  UNL1        0.0025
     19 C         142.3936  134.0205  153.8787 C.ar    1  UNL1        0.0114
     20 C         142.8301  132.8932  154.7666 C.ar    1  UNL1        0.0577
     21 CL        142.5531  131.4740  154.3678 Cl      1  UNL1       -0.0822
     22 C         143.5437  133.1850  156.0534 C.ar    1  UNL1        0.0114
     23 C         143.8207  134.6042  156.4521 C.ar    1  UNL1        0.0025
     24 C         140.6368  145.4738  161.8854 C.3     1  UNL1        0.0437
     25 C         139.1930  145.4865  162.2923 C.3     1  UNL1        0.0768
     26 N         138.5657  144.2526  162.8700 N.3     1  UNL1       -0.2737
     27 C         138.0445  143.0812  162.0913 C.3     1  UNL1        0.0721
     28 C         137.5061  142.0780  163.0678 C.3     1  UNL1        0.0187
     29 C         137.6945  142.6294  164.4501 C.3     1  UNL1        0.0174
     30 C         138.3494  143.9733  164.3278 C.3     1  UNL1        0.0576
     31 C         138.7224  144.8789  165.4639 C.3     1  UNL1        0.0173
@<TRIPOS>BOND
     1    11    12    1
     2    12    13   ar
     3    13    17    1
     4    17    18   ar
     5    18    19   ar
     6    19    20   ar
     7    20    21    1
     8    20    22   ar
     9    22    23   ar
    10    13    14   ar
    11    14    15   ar
    12    15    16   ar
    13    16     1    1
    14     1     2   ar
    15     2     3   ar
    16     3     4   ar
    17     4     5   ar
    18     5     6   ar
    19     6    24    1
    20    24    25    1
    21    25    26    1
    22    26    27    1
    23    27    28    1
    24    28    29    1
    25    29    30    1
    26    30    31    1
    27     6     7   ar
    28     7     8   ar
    29     8     9   ar
    30     9    10   ar
    31    16    12   ar
    32    10     1   ar
    33    23    17   ar
    34     9     4   ar
    35    30    26    1
@<TRIPOS>MOLECULE
*****
 31 35 0 0 0
SMALL
GASTEIGER

@<TRIPOS>ATOM
      1 C         142.5999  138.3068  159.9885 C.ar    1  UNL1        0.1180
      2 C         143.7908  139.1524  160.3299 C.ar    1  UNL1        0.0223
      3 C         144.1487  139.3991  161.7655 C.ar    1  UNL1        0.0031
      4 C         143.3156  138.8002  162.8597 C.ar    1  UNL1        0.0174
      5 C         143.6735  139.0469  164.2954 C.ar    1  UNL1       -0.0027
      6 C         142.8405  138.4480  165.3896 C.ar    1  UNL1       -0.0207
      7 C         141.6495  137.6024  165.0481 C.ar    1  UNL1       -0.0027
      8 C         141.2916  137.3557  163.6125 C.ar    1  UNL1        0.0188
      9 C         142.1247  137.9546  162.5183 C.ar    1  UNL1        0.0813
     10 N         141.7668  137.7079  161.0827 N.ar    1  UNL1       -0.2422
     11 C         139.8398  139.2318  158.5133 C.3     1  UNL1        0.0361
     12 C         140.9733  138.4852  157.8748 C.ar    1  UNL1        0.0376
     13 C         141.0372  138.0327  156.4461 C.ar    1  UNL1        0.1190
     14 N         142.3454  137.3279  156.2411 N.ar    1  UNL1       -0.0772
     15 O         143.0899  137.3447  157.5431 O.2     1  UNL1       -0.3522
     16 C         142.2420  138.0600  158.5528 C.ar    1  UNL1        0.1903
     17 C         139.9787  138.2474  155.4051 C.ar    1  UNL1        0.0207
     18 C         139.9651  139.5124  154.5991 C.ar    1  UNL1        0.0025
     19 C         138.9067  139.7271  153.5581 C.ar    1  UNL1        0.0114
     20 C         137.8619  138.6768  153.3232 C.ar    1  UNL1        0.0577
     21 CL        136.8035  138.8915  152.2822 Cl      1  UNL1       -0.0822
     22 C         137.8755  137.4117  154.1292 C.ar    1  UNL1        0.0114
     23 C         138.9339  137.1971  155.1701 C.ar    1  UNL1        0.0025
     24 C         143.1983  138.6947  166.8252 C.3     1  UNL1        0.0437
     25 C         142.5800  139.8435  167.5656 C.3     1  UNL1        0.0768
     26 N         141.7593  140.8579  166.8258 N.3     1  UNL1       -0.2737
     27 C         142.2824  142.0864  166.1423 C.3     1  UNL1        0.0721
     28 C         141.1178  142.8097  165.5336 C.3     1  UNL1        0.0187
     29 C         139.8749  142.0281  165.8409 C.3     1  UNL1        0.0174
     30 C         140.2714  140.8219  166.6395 C.3     1  UNL1        0.0576
     31 C         139.3429  139.7652  167.1604 C.3     1  UNL1        0.0173
@<TRIPOS>BOND
     1    11    12    1
     2    12    13   ar
     3    13    17    1
     4    17    18   ar
     5    18    19   ar
     6    19    20   ar
     7    20    21    1
     8    20    22   ar
     9    22    23   ar
    10    13    14   ar
    11    14    15   ar
    12    15    16   ar
    13    16     1    1
    14     1     2   ar
    15     2     3   ar
    16     3     4   ar
    17     4     5   ar
    18     5     6   ar
    19     6    24    1
    20    24    25    1
    21    25    26    1
    22    26    27    1
    23    27    28    1
    24    28    29    1
    25    29    30    1
    26    30    31    1
    27     6     7   ar
    28     7     8   ar
    29     8     9   ar
    30     9    10   ar
    31    16    12   ar
    32    10     1   ar
    33    23    17   ar
    34     9     4   ar
    35    30    26    1
@<TRIPOS>MOLECULE
*****
 31 35 0 0 0
SMALL
GASTEIGER

@<TRIPOS>ATOM
      1 C         143.1837  139.9241  160.2893 C.ar    1  UNL1        0.1180
      2 C         141.7101  140.0718  160.5271 C.ar    1  UNL1        0.0223
      3 C         141.1615  139.9725  161.9196 C.ar    1  UNL1        0.0031
      4 C         142.0865  139.7255  163.0743 C.ar    1  UNL1        0.0174
      5 C         141.5378  139.6262  164.4669 C.ar    1  UNL1       -0.0027
      6 C         142.4629  139.3793  165.6216 C.ar    1  UNL1       -0.0207
      7 C         143.9366  139.2316  165.3837 C.ar    1  UNL1       -0.0027
      8 C         144.4851  139.3309  163.9912 C.ar    1  UNL1        0.0188
      9 C         143.5601  139.5778  162.8365 C.ar    1  UNL1        0.0813
     10 N         144.1087  139.6771  161.4440 N.ar    1  UNL1       -0.2422
     11 C         144.6846  142.5189  158.9993 C.3     1  UNL1        0.0361
     12 C         144.4222  141.2161  158.3038 C.ar    1  UNL1        0.0376
     13 C         144.8037  140.8772  156.8932 C.ar    1  UNL1        0.1190
     14 N         144.3495  139.4750  156.6143 N.ar    1  UNL1       -0.0772
     15 O         143.6874  138.9474  157.8525 O.2     1  UNL1       -0.3522
     16 C         143.7323  140.0234  158.8967 C.ar    1  UNL1        0.1903
     17 C         145.5145  141.7817  155.9306 C.ar    1  UNL1        0.0207
     18 C         147.0138  141.8096  155.8952 C.ar    1  UNL1        0.0025
     19 C         147.7246  142.7141  154.9326 C.ar    1  UNL1        0.0114
     20 C         146.9360  143.5905  154.0053 C.ar    1  UNL1        0.0577
     21 CL        147.6468  144.4950  153.0426 Cl      1  UNL1       -0.0822
     22 C         145.4366  143.5626  154.0406 C.ar    1  UNL1        0.0114
     23 C         144.7260  142.6582  155.0032 C.ar    1  UNL1        0.0025
     24 C         141.9143  139.2800  167.0141 C.3     1  UNL1        0.0437
     25 C         140.5452  139.8108  167.3205 C.3     1  UNL1        0.0768
     26 N         140.3882  141.0257  168.1862 N.3     1  UNL1       -0.2737
     27 C         140.0081  141.0312  169.6372 C.3     1  UNL1        0.0721
     28 C         139.9688  142.4572  170.1007 C.3     1  UNL1        0.0187
     29 C         140.3246  143.3331  168.9361 C.3     1  UNL1        0.0174
     30 C         140.5838  142.4483  167.7529 C.3     1  UNL1        0.0576
     31 C         140.9706  142.9059  166.3778 C.3     1  UNL1        0.0173
@<TRIPOS>BOND
     1    11    12    1
     2    12    13   ar
     3    13    17    1
     4    17    18   ar
     5    18    19   ar
     6    19    20   ar
     7    20    21    1
     8    20    22   ar
     9    22    23   ar
    10    13    14   ar
    11    14    15   ar
    12    15    16   ar
    13    16     1    1
    14     1     2   ar
    15     2     3   ar
    16     3     4   ar
    17     4     5   ar
    18     5     6   ar
    19     6    24    1
    20    24    25    1
    21    25    26    1
    22    26    27    1
    23    27    28    1
    24    28    29    1
    25    29    30    1
    26    30    31    1
    27     6     7   ar
    28     7     8   ar
    29     8     9   ar
    30     9    10   ar
    31    16    12   ar
    32    10     1   ar
    33    23    17   ar
    34     9     4   ar
    35    30    26    1
@<TRIPOS>MOLECULE
*****
 31 35 0 0 0
SMALL
GASTEIGER

@<TRIPOS>ATOM
      1 C         140.6943  138.7388  162.2760 C.ar    1  UNL1        0.1180
      2 C         142.0219  138.0412  162.3031 C.ar    1  UNL1        0.0223
      3 C         142.7168  137.7011  161.0181 C.ar    1  UNL1        0.0031
      4 C         142.0841  138.0587  159.7059 C.ar    1  UNL1        0.0174
      5 C         142.7791  137.7185  158.4208 C.ar    1  UNL1       -0.0027
      6 C         142.1464  138.0760  157.1086 C.ar    1  UNL1       -0.0207
      7 C         140.8187  138.7737  157.0815 C.ar    1  UNL1       -0.0027
      8 C         140.1238  139.1138  158.3665 C.ar    1  UNL1        0.0188
      9 C         140.7565  138.7563  159.6787 C.ar    1  UNL1        0.0813
     10 N         140.0616  139.0963  160.9638 N.ar    1  UNL1       -0.2422
     11 C         141.9759  140.4174  164.7639 C.3     1  UNL1        0.0361
     12 C         140.5885  139.8505  164.7046 C.ar    1  UNL1        0.0376
     13 C         139.5465  139.9556  165.7785 C.ar    1  UNL1        0.1190
     14 N         138.3133  139.2490  165.2986 N.ar    1  UNL1       -0.0772
     15 O         138.5933  138.7072  163.9282 O.2     1  UNL1       -0.3522
     16 C         139.9994  139.0789  163.5611 C.ar    1  UNL1        0.1903
     17 C         139.7090  140.6460  167.1002 C.ar    1  UNL1        0.0207
     18 C         140.2682  142.0368  167.1561 C.ar    1  UNL1        0.0025
     19 C         140.4308  142.7272  168.4778 C.ar    1  UNL1        0.0114
     20 C         140.0341  142.0269  169.7435 C.ar    1  UNL1        0.0577
     21 CL        140.1967  142.7174  171.0652 Cl      1  UNL1       -0.0822
     22 C         139.4749  140.6361  169.6876 C.ar    1  UNL1        0.0114
     23 C         139.3123  139.9458  168.3660 C.ar    1  UNL1        0.0025
     24 C         142.8413  137.7360  155.8235 C.3     1  UNL1        0.0437
     25 C         143.6996  136.5088  155.7369 C.3     1  UNL1        0.0768
     26 N         143.0715  135.1707  155.4820 N.3     1  UNL1       -0.2737
     27 C         142.3855  134.7451  154.2177 C.3     1  UNL1        0.0721
     28 C         141.9091  133.3347  154.4010 C.3     1  UNL1        0.0187
     29 C         142.3006  132.8885  155.7786 C.3     1  UNL1        0.0174
     30 C         143.0190  134.0233  156.4467 C.3     1  UNL1        0.0576
     31 C         143.5854  134.0124  157.8356 C.3     1  UNL1        0.0173
@<TRIPOS>BOND
     1    11    12    1
     2    12    13   ar
     3    13    17    1
     4    17    18   ar
     5    18    19   ar
     6    19    20   ar
     7    20    21    1
     8    20    22   ar
     9    22    23   ar
    10    13    14   ar
    11    14    15   ar
    12    15    16   ar
    13    16     1    1
    14     1     2   ar
    15     2     3   ar
    16     3     4   ar
    17     4     5   ar
    18     5     6   ar
    19     6    24    1
    20    24    25    1
    21    25    26    1
    22    26    27    1
    23    27    28    1
    24    28    29    1
    25    29    30    1
    26    30    31    1
    27     6     7   ar
    28     7     8   ar
    29     8     9   ar
    30     9    10   ar
    31    16    12   ar
    32    10     1   ar
    33    23    17   ar
    34     9     4   ar
    35    30    26    1
@<TRIPOS>MOLECULE
*****
 31 35 0 0 0
SMALL
GASTEIGER

@<TRIPOS>ATOM
      1 C         138.5158  142.0463  159.3833 C.ar    1  UNL1        0.1180
      2 C         139.1777  140.7007  159.4172 C.ar    1  UNL1        0.0223
      3 C         139.3216  139.9683  160.7182 C.ar    1  UNL1        0.0031
      4 C         138.8036  140.5814  161.9854 C.ar    1  UNL1        0.0174
      5 C         138.9475  139.8489  163.2865 C.ar    1  UNL1       -0.0027
      6 C         138.4294  140.4620  164.5536 C.ar    1  UNL1       -0.0207
      7 C         137.7675  141.8077  164.5197 C.ar    1  UNL1       -0.0027
      8 C         137.6236  142.5402  163.2186 C.ar    1  UNL1        0.0188
      9 C         138.1416  141.9270  161.9515 C.ar    1  UNL1        0.0813
     10 N         137.9978  142.6594  160.6504 N.ar    1  UNL1       -0.2422
     11 C         140.4882  144.3998  158.2786 C.3     1  UNL1        0.0361
     12 C         139.2785  143.8606  157.5744 C.ar    1  UNL1        0.0376
     13 C         138.7630  144.3085  156.2389 C.ar    1  UNL1        0.1190
     14 N         137.5377  143.5035  155.9212 N.ar    1  UNL1       -0.0772
     15 O         137.2961  142.5581  157.0604 O.2     1  UNL1       -0.3522
     16 C         138.3719  142.7788  158.0822 C.ar    1  UNL1        0.1903
     17 C         139.3667  145.3742  155.3730 C.ar    1  UNL1        0.0207
     18 C         140.4565  145.0248  154.4035 C.ar    1  UNL1        0.0025
     19 C         141.0603  146.0905  153.5376 C.ar    1  UNL1        0.0114
     20 C         140.5741  147.5057  153.6413 C.ar    1  UNL1        0.0577
     21 CL        141.1778  148.5714  152.7755 Cl      1  UNL1       -0.0822
     22 C         139.4842  147.8552  154.6110 C.ar    1  UNL1        0.0114
     23 C         138.8806  146.7895  155.4767 C.ar    1  UNL1        0.0025
     24 C         138.5733  139.7296  165.8547 C.3     1  UNL1        0.0437
     25 C         139.8513  139.8288  166.6339 C.3     1  UNL1        0.0768
     26 N         140.0190  140.9046  167.6656 N.3     1  UNL1       -0.2737
     27 C         139.7236  140.7753  169.1305 C.3     1  UNL1        0.0721
     28 C         140.0337  142.0894  169.7838 C.3     1  UNL1        0.0187
     29 C         140.5208  143.0310  168.7225 C.3     1  UNL1        0.0174
     30 C         140.5118  142.2988  167.4134 C.3     1  UNL1        0.0576
     31 C         140.9232  142.8618  166.0854 C.3     1  UNL1        0.0173
@<TRIPOS>BOND
     1    11    12    1
     2    12    13   ar
     3    13    17    1
     4    17    18   ar
     5    18    19   ar
     6    19    20   ar
     7    20    21    1
     8    20    22   ar
     9    22    23   ar
    10    13    14   ar
    11    14    15   ar
    12    15    16   ar
    13    16     1    1
    14     1     2   ar
    15     2     3   ar
    16     3     4   ar
    17     4     5   ar
    18     5     6   ar
    19     6    24    1
    20    24    25    1
    21    25    26    1
    22    26    27    1
    23    27    28    1
    24    28    29    1
    25    29    30    1
    26    30    31    1
    27     6     7   ar
    28     7     8   ar
    29     8     9   ar
    30     9    10   ar
    31    16    12   ar
    32    10     1   ar
    33    23    17   ar
    34     9     4   ar
    35    30    26    1
@<TRIPOS>MOLECULE
*****
 31 35 0 0 0
SMALL
GASTEIGER

@<TRIPOS>ATOM
      1 C         142.3624  138.3754  158.2250 C.ar    1  UNL1        0.1180
      2 C         142.8639  139.7403  157.8573 C.ar    1  UNL1        0.0223
      3 C         143.5494  140.5897  158.8862 C.ar    1  UNL1        0.0031
      4 C         143.7334  140.0741  160.2827 C.ar    1  UNL1        0.0174
      5 C         144.4190  140.9236  161.3116 C.ar    1  UNL1       -0.0027
      6 C         144.6030  140.4080  162.7081 C.ar    1  UNL1       -0.0207
      7 C         144.1014  139.0429  163.0758 C.ar    1  UNL1       -0.0027
      8 C         143.4159  138.1936  162.0469 C.ar    1  UNL1        0.0188
      9 C         143.2319  138.7092  160.6504 C.ar    1  UNL1        0.0813
     10 N         142.5464  137.8598  159.6216 N.ar    1  UNL1       -0.2422
     11 C         143.6102  135.7268  156.7835 C.3     1  UNL1        0.0361
     12 C         142.2504  136.3085  156.5336 C.ar    1  UNL1        0.0376
     13 C         141.2254  135.7750  155.5772 C.ar    1  UNL1        0.1190
     14 N         140.0183  136.6626  155.6487 N.ar    1  UNL1       -0.0772
     15 O         140.2973  137.7447  156.6493 O.2     1  UNL1       -0.3522
     16 C         141.6768  137.5259  157.1962 C.ar    1  UNL1        0.1903
     17 C         141.3803  134.5660  154.7029 C.ar    1  UNL1        0.0207
     18 C         141.2853  133.1926  155.2984 C.ar    1  UNL1        0.0025
     19 C         141.4402  131.9836  154.4240 C.ar    1  UNL1        0.0114
     20 C         141.6900  132.1482  152.9542 C.ar    1  UNL1        0.0577
     21 CL        141.8449  130.9393  152.0798 Cl      1  UNL1       -0.0822
     22 C         141.7850  133.5217  152.3586 C.ar    1  UNL1        0.0114
     23 C         141.6301  134.7305  153.2330 C.ar    1  UNL1        0.0025
     24 C         145.2885  141.2574  163.7370 C.3     1  UNL1        0.0437
     25 C         144.4773  142.0075  164.7517 C.3     1  UNL1        0.0768
     26 N         143.4981  143.0523  164.3052 N.3     1  UNL1       -0.2737
     27 C         143.7955  144.5077  164.0969 C.3     1  UNL1        0.0721
     28 C         142.5307  145.1802  163.6517 C.3     1  UNL1        0.0187
     29 C         141.4517  144.1403  163.5849 C.3     1  UNL1        0.0174
     30 C         142.0496  142.8252  163.9888 C.3     1  UNL1        0.0576
     31 C         141.3260  141.5134  164.0632 C.3     1  UNL1        0.0173
@<TRIPOS>BOND
     1    11    12    1
     2    12    13   ar
     3    13    17    1
     4    17    18   ar
     5    18    19   ar
     6    19    20   ar
     7    20    21    1
     8    20    22   ar
     9    22    23   ar
    10    13    14   ar
    11    14    15   ar
    12    15    16   ar
    13    16     1    1
    14     1     2   ar
    15     2     3   ar
    16     3     4   ar
    17     4     5   ar
    18     5     6   ar
    19     6    24    1
    20    24    25    1
    21    25    26    1
    22    26    27    1
    23    27    28    1
    24    28    29    1
    25    29    30    1
    26    30    31    1
    27     6     7   ar
    28     7     8   ar
    29     8     9   ar
    30     9    10   ar
    31    16    12   ar
    32    10     1   ar
    33    23    17   ar
    34     9     4   ar
    35    30    26    1
