@<TRIPOS>MOLECULE
*****
 41 46 0 0 0
SMALL
GASTEIGER

@<TRIPOS>ATOM
      1 C         144.3582  139.4438  163.5508 C.3     1  UNL1        0.0700
      2 C         143.4481  138.9416  162.4694 C.3     1  UNL1        0.0193
      3 C         142.2037  138.1846  162.8279 C.3     1  UNL1        0.0286
      4 C         141.8694  137.9299  164.2679 C.3     1  UNL1        0.0932
      5 C         142.7796  138.4322  165.3493 C.3     1  UNL1        0.0286
      6 C         144.0240  139.1891  164.9907 C.3     1  UNL1        0.0193
      7 O         142.5624  138.3495  164.1204 O.3     1  UNL1       -0.3572
      8 C         143.6876  139.0339  163.7962 C.3     1  UNL1        0.1562
      9 N         145.6026  140.2007  163.1923 N.3     1  UNL1       -0.2926
     10 H         146.3543  139.8211  163.7679 H       1  UNL1        0.1236
     11 C         145.6458  141.6916  163.3517 C.3     1  UNL1        0.1148
     12 C         143.8376  143.5400  163.6049 C.ar    1  UNL1       -0.0082
     13 C         144.5642  142.5415  162.7534 C.ar    1  UNL1        0.0722
     14 N         144.2092  142.3928  161.3036 N.ar    1  UNL1       -0.2308
     15 C         143.1276  143.2427  160.7053 C.ar    1  UNL1        0.1679
     16 C         142.4010  144.2413  161.5568 C.ar    1  UNL1        0.1664
     17 C         142.7561  144.3899  163.0066 C.ar    1  UNL1        0.0122
     18 C         142.0295  145.3884  163.8582 C.3     1  UNL1        0.0340
     19 O         141.3195  145.0911  160.9586 O.3     1  UNL1       -0.4631
     20 C         140.9645  144.9425  159.5088 C.3     1  UNL1        0.2898
     21 C         141.6911  143.9440  158.6573 C.2     1  UNL1        0.2718
     22 O         141.3361  143.7953  157.2075 O.2     1  UNL1       -0.2707
     23 N         142.7726  143.0941  159.2555 N.am    1  UNL1       -0.2639
     24 H         143.2495  142.4387  158.6967 H       1  UNL1        0.1565
     25 C         143.6392  142.7277  166.0647 C.3     1  UNL1        0.0051
     26 C         144.1926  143.6886  165.0547 C.3     1  UNL1        0.0274
     27 C         140.6251  137.1730  164.6264 C.3     1  UNL1        0.0320
     28 C         139.3745  137.9161  164.9922 C.3     1  UNL1        0.0327
     29 C         139.0038  139.1690  164.2554 C.ar    1  UNL1        0.0261
     30 C         138.3526  139.0813  162.9070 C.ar    1  UNL1        0.1566
     31 F         138.0720  137.7406  162.2954 F       1  UNL1       -0.2028
     32 C         137.9819  140.3342  162.1702 C.ar    1  UNL1        0.1281
     33 N         138.2625  141.6748  162.7818 N.ar    1  UNL1       -0.2400
     34 C         138.9138  141.7625  164.1302 C.ar    1  UNL1        0.0990
     35 C         139.1944  143.1031  164.7418 C.ar    1  UNL1        0.0254
     36 C         139.8456  143.1908  166.0902 C.ar    1  UNL1        0.0593
     37 C         140.2163  141.9380  166.8270 C.ar    1  UNL1        0.2250
     38 N         139.9357  140.5973  166.2154 N.ar    1  UNL1       -0.2104
     39 C         139.2844  140.5096  164.8670 C.ar    1  UNL1        0.1002
     40 O         140.8675  142.0257  168.1754 O.3     1  UNL1       -0.4561
     41 C         140.5538  143.1752  169.0864 C.3     1  UNL1        0.2542
@<TRIPOS>BOND
     1    25    26    1
     2    26    12    1
     3    12    13   ar
     4    13    11    1
     5    11     9    1
     6     9     1    1
     7     1     2    1
     8     2     3    1
     9     3     4    1
    10     4    27    1
    11    27    28    1
    12    28    29    1
    13    29    30   ar
    14    30    31    1
    15    30    32   ar
    16    32    33   ar
    17    33    34   ar
    18    34    35   ar
    19    35    36   ar
    20    36    37   ar
    21    37    40    1
    22    40    41    1
    23    37    38   ar
    24    38    39   ar
    25     4     5    1
    26     5     6    1
    27     4     7    1
    28     7     8    1
    29    13    14   ar
    30    14    15   ar
    31    15    16   ar
    32    16    17   ar
    33    17    18    1
    34    16    19    1
    35    19    20    1
    36    20    21    1
    37    21    22    2
    38    21    23   am
    39    17    12   ar
    40     6     1    1
    41    23    15    1
    42     8     1    1
    43    39    29   ar
    44    39    34   ar
    45     9    10    1
    46    23    24    1
@<TRIPOS>MOLECULE
*****
 41 46 0 0 0
SMALL
GASTEIGER

@<TRIPOS>ATOM
      1 C         137.8990  140.3466  163.6140 C.3     1  UNL1        0.0700
      2 C         138.1937  139.9935  165.0417 C.3     1  UNL1        0.0193
      3 C         139.2181  138.9447  165.3589 C.3     1  UNL1        0.0286
      4 C         139.9478  138.2490  164.2483 C.3     1  UNL1        0.0932
      5 C         139.6532  138.6021  162.8205 C.3     1  UNL1        0.0286
      6 C         138.6288  139.6509  162.5033 C.3     1  UNL1        0.0193
      7 O         139.3950  138.8170  164.0252 O.3     1  UNL1       -0.3572
      8 C         138.4687  139.7654  163.7384 C.3     1  UNL1        0.1562
      9 N         136.8746  141.3954  163.2968 N.3     1  UNL1       -0.2926
     10 H         136.5510  141.2132  162.3469 H       1  UNL1        0.1236
     11 C         137.2448  142.8478  163.3570 C.3     1  UNL1        0.1148
     12 C         139.5674  144.0102  163.2915 C.ar    1  UNL1       -0.0082
     13 C         138.4223  143.3546  162.5781 C.ar    1  UNL1        0.0722
     14 N         138.4547  143.2057  161.0859 N.ar    1  UNL1       -0.2308
     15 C         139.6322  143.7125  160.3069 C.ar    1  UNL1        0.1679
     16 C         140.7773  144.3682  161.0203 C.ar    1  UNL1        0.1664
     17 C         140.7449  144.5170  162.5126 C.ar    1  UNL1        0.0122
     18 C         141.8900  145.1727  163.2260 C.3     1  UNL1        0.0340
     19 O         141.9548  144.8749  160.2415 O.3     1  UNL1       -0.4631
     20 C         141.9872  144.7261  158.7492 C.3     1  UNL1        0.2898
     21 C         140.8421  144.0704  158.0359 C.2     1  UNL1        0.2718
     22 O         140.8745  143.9216  156.5436 O.2     1  UNL1       -0.2707
     23 N         139.6646  143.5636  158.8147 N.am    1  UNL1       -0.2639
     24 H         138.9130  143.1333  158.3465 H       1  UNL1        0.1565
     25 C         140.0191  143.0418  165.6596 C.3     1  UNL1        0.0051
     26 C         139.5350  144.1591  164.7837 C.3     1  UNL1        0.0274
     27 C         140.9722  137.2002  164.5654 C.3     1  UNL1        0.0320
     28 C         142.3338  137.6036  165.0483 C.3     1  UNL1        0.0327
     29 C         142.9292  138.9085  164.6092 C.ar    1  UNL1        0.0261
     30 C         143.4613  139.0587  163.2148 C.ar    1  UNL1        0.1566
     31 F         143.3980  137.9040  162.2595 F       1  UNL1       -0.2028
     32 C         144.0566  140.3636  162.7758 C.ar    1  UNL1        0.1281
     33 N         144.1199  141.5184  163.7311 N.ar    1  UNL1       -0.2400
     34 C         143.5879  141.3682  165.1255 C.ar    1  UNL1        0.0990
     35 C         143.6512  142.5228  166.0808 C.ar    1  UNL1        0.0254
     36 C         143.1191  142.3726  167.4752 C.ar    1  UNL1        0.0593
     37 C         142.5238  141.0678  167.9143 C.ar    1  UNL1        0.2250
     38 N         142.4605  139.9130  166.9590 N.ar    1  UNL1       -0.2104
     39 C         142.9925  140.0632  165.5646 C.ar    1  UNL1        0.1002
     40 O         141.9917  140.9176  169.3087 O.3     1  UNL1       -0.4561
     41 C         141.8247  139.5512  169.9046 C.3     1  UNL1        0.2542
@<TRIPOS>BOND
     1    25    26    1
     2    26    12    1
     3    12    13   ar
     4    13    11    1
     5    11     9    1
     6     9     1    1
     7     1     2    1
     8     2     3    1
     9     3     4    1
    10     4    27    1
    11    27    28    1
    12    28    29    1
    13    29    30   ar
    14    30    31    1
    15    30    32   ar
    16    32    33   ar
    17    33    34   ar
    18    34    35   ar
    19    35    36   ar
    20    36    37   ar
    21    37    40    1
    22    40    41    1
    23    37    38   ar
    24    38    39   ar
    25     4     5    1
    26     5     6    1
    27     4     7    1
    28     7     8    1
    29    13    14   ar
    30    14    15   ar
    31    15    16   ar
    32    16    17   ar
    33    17    18    1
    34    16    19    1
    35    19    20    1
    36    20    21    1
    37    21    22    2
    38    21    23   am
    39    17    12   ar
    40     6     1    1
    41    23    15    1
    42     8     1    1
    43    39    29   ar
    44    39    34   ar
    45     9    10    1
    46    23    24    1
@<TRIPOS>MOLECULE
*****
 41 46 0 0 0
SMALL
GASTEIGER

@<TRIPOS>ATOM
      1 C         142.2922  144.8825  162.7852 C.3     1  UNL1        0.0700
      2 C         142.9869  144.7475  164.1078 C.3     1  UNL1        0.0193
      3 C         144.0848  143.7398  164.2789 C.3     1  UNL1        0.0286
      4 C         144.4880  142.8671  163.1274 C.3     1  UNL1        0.0932
      5 C         143.7933  143.0022  161.8048 C.3     1  UNL1        0.0286
      6 C         142.6954  144.0098  161.6337 C.3     1  UNL1        0.0193
      7 O         143.8808  143.4049  162.9856 O.3     1  UNL1       -0.3572
      8 C         142.8881  144.3161  162.8309 C.3     1  UNL1        0.1562
      9 N         141.1944  145.8901  162.6142 N.3     1  UNL1       -0.2926
     10 H         141.4453  146.6985  163.1833 H       1  UNL1        0.1236
     11 C         139.7831  145.5297  162.9724 C.3     1  UNL1        0.1148
     12 C         138.8520  143.2231  163.7224 C.ar    1  UNL1       -0.0082
     13 C         139.2456  144.1719  162.6294 C.ar    1  UNL1        0.0722
     14 N         139.1018  143.7630  161.1934 N.ar    1  UNL1       -0.2308
     15 C         138.5644  142.4052  160.8504 C.ar    1  UNL1        0.1679
     16 C         138.1708  141.4563  161.9435 C.ar    1  UNL1        0.1664
     17 C         138.3146  141.8653  163.3795 C.ar    1  UNL1        0.0122
     18 C         137.9210  140.9165  164.4726 C.3     1  UNL1        0.0340
     19 O         137.6334  140.0986  161.6006 O.3     1  UNL1       -0.4631
     20 C         137.4895  139.6896  160.1646 C.3     1  UNL1        0.2898
     21 C         137.8831  140.6385  159.0715 C.2     1  UNL1        0.2718
     22 O         137.7393  140.2295  157.6355 O.2     1  UNL1       -0.2707
     23 N         138.4206  141.9962  159.4144 N.am    1  UNL1       -0.2639
     24 H         138.6789  142.6190  158.6970 H       1  UNL1        0.1565
     25 C         140.2177  143.2349  165.9326 C.3     1  UNL1        0.0051
     26 C         138.9958  143.6320  165.1585 C.3     1  UNL1        0.0274
     27 C         145.5859  141.8595  163.2984 C.3     1  UNL1        0.0320
     28 C         145.2823  140.5114  163.8817 C.3     1  UNL1        0.0327
     29 C         143.9310  139.8928  163.6776 C.ar    1  UNL1        0.0261
     30 C         143.5610  139.3240  162.3398 C.ar    1  UNL1        0.1566
     31 F         144.5422  139.3738  161.2063 F       1  UNL1       -0.2028
     32 C         142.2098  138.7055  162.1356 C.ar    1  UNL1        0.1281
     33 N         141.2286  138.6558  163.2692 N.ar    1  UNL1       -0.2400
     34 C         141.5987  139.2245  164.6069 C.ar    1  UNL1        0.0990
     35 C         140.6175  139.1748  165.7404 C.ar    1  UNL1        0.0254
     36 C         140.9876  139.7436  167.0781 C.ar    1  UNL1        0.0593
     37 C         142.3388  140.3621  167.2824 C.ar    1  UNL1        0.2250
     38 N         143.3200  140.4119  166.1488 N.ar    1  UNL1       -0.2104
     39 C         142.9499  139.8431  164.8111 C.ar    1  UNL1        0.1002
     40 O         142.7088  140.9309  168.6201 O.3     1  UNL1       -0.4561
     41 C         143.1537  142.3591  168.7308 C.3     1  UNL1        0.2542
@<TRIPOS>BOND
     1    25    26    1
     2    26    12    1
     3    12    13   ar
     4    13    11    1
     5    11     9    1
     6     9     1    1
     7     1     2    1
     8     2     3    1
     9     3     4    1
    10     4    27    1
    11    27    28    1
    12    28    29    1
    13    29    30   ar
    14    30    31    1
    15    30    32   ar
    16    32    33   ar
    17    33    34   ar
    18    34    35   ar
    19    35    36   ar
    20    36    37   ar
    21    37    40    1
    22    40    41    1
    23    37    38   ar
    24    38    39   ar
    25     4     5    1
    26     5     6    1
    27     4     7    1
    28     7     8    1
    29    13    14   ar
    30    14    15   ar
    31    15    16   ar
    32    16    17   ar
    33    17    18    1
    34    16    19    1
    35    19    20    1
    36    20    21    1
    37    21    22    2
    38    21    23   am
    39    17    12   ar
    40     6     1    1
    41    23    15    1
    42     8     1    1
    43    39    29   ar
    44    39    34   ar
    45     9    10    1
    46    23    24    1
@<TRIPOS>MOLECULE
*****
 41 46 0 0 0
SMALL
GASTEIGER

@<TRIPOS>ATOM
      1 C         137.8623  140.0718  162.2127 C.3     1  UNL1        0.0700
      2 C         138.0159  141.1724  161.2053 C.3     1  UNL1        0.0193
      3 C         137.9987  142.6047  161.6507 C.3     1  UNL1        0.0286
      4 C         137.8279  142.9363  163.1036 C.3     1  UNL1        0.0932
      5 C         137.6743  141.8356  164.1110 C.3     1  UNL1        0.0286
      6 C         137.6915  140.4034  163.6656 C.3     1  UNL1        0.0193
      7 O         137.8310  142.1366  162.9073 O.3     1  UNL1       -0.3572
      8 C         137.8466  140.8416  162.5045 C.3     1  UNL1        0.1562
      9 N         137.8794  138.6396  161.7673 N.3     1  UNL1       -0.2926
     10 H         137.4325  138.0962  162.5057 H       1  UNL1        0.1236
     11 C         139.1837  137.9647  161.4619 C.3     1  UNL1        0.1148
     12 C         141.0163  138.1685  163.2923 C.ar    1  UNL1       -0.0082
     13 C         140.4698  138.5616  161.9519 C.ar    1  UNL1        0.0722
     14 N         141.2092  139.5514  161.1013 N.ar    1  UNL1       -0.2308
     15 C         142.4952  140.1483  161.5912 C.ar    1  UNL1        0.1679
     16 C         143.0418  139.7553  162.9317 C.ar    1  UNL1        0.1664
     17 C         142.3023  138.7654  163.7822 C.ar    1  UNL1        0.0122
     18 C         142.8489  138.3723  165.1227 C.3     1  UNL1        0.0340
     19 O         144.3278  140.3521  163.4216 O.3     1  UNL1       -0.4631
     20 C         145.0672  141.3419  162.5711 C.3     1  UNL1        0.2898
     21 C         144.5206  141.7349  161.2306 C.2     1  UNL1        0.2718
     22 O         145.2601  142.7248  160.3801 O.2     1  UNL1       -0.2707
     23 N         143.2346  141.1381  160.7407 N.am    1  UNL1       -0.2639
     24 H         142.8759  141.3961  159.8609 H       1  UNL1        0.1565
     25 C         139.2385  137.6536  165.1156 C.3     1  UNL1        0.0051
     26 C         140.2769  137.1786  164.1428 C.3     1  UNL1        0.0274
     27 C         137.8108  144.3685  163.5490 C.3     1  UNL1        0.0320
     28 C         138.8458  144.8663  164.5138 C.3     1  UNL1        0.0327
     29 C         140.2893  144.5097  164.3153 C.ar    1  UNL1        0.0261
     30 C         141.0687  145.1331  163.1955 C.ar    1  UNL1        0.1566
     31 F         140.4046  146.1131  162.2742 F       1  UNL1       -0.2028
     32 C         142.5121  144.7766  162.9970 C.ar    1  UNL1        0.1281
     33 N         143.1762  143.7966  163.9183 N.ar    1  UNL1       -0.2400
     34 C         142.3968  143.1732  165.0380 C.ar    1  UNL1        0.0990
     35 C         143.0608  142.1932  165.9593 C.ar    1  UNL1        0.0254
     36 C         142.2814  141.5698  167.0790 C.ar    1  UNL1        0.0593
     37 C         140.8380  141.9263  167.2776 C.ar    1  UNL1        0.2250
     38 N         140.1739  142.9063  166.3563 N.ar    1  UNL1       -0.2104
     39 C         140.9533  143.5297  165.2365 C.ar    1  UNL1        0.1002
     40 O         140.0586  141.3029  168.3973 O.3     1  UNL1       -0.4561
     41 C         140.0311  141.9569  169.7470 C.3     1  UNL1        0.2542
@<TRIPOS>BOND
     1    25    26    1
     2    26    12    1
     3    12    13   ar
     4    13    11    1
     5    11     9    1
     6     9     1    1
     7     1     2    1
     8     2     3    1
     9     3     4    1
    10     4    27    1
    11    27    28    1
    12    28    29    1
    13    29    30   ar
    14    30    31    1
    15    30    32   ar
    16    32    33   ar
    17    33    34   ar
    18    34    35   ar
    19    35    36   ar
    20    36    37   ar
    21    37    40    1
    22    40    41    1
    23    37    38   ar
    24    38    39   ar
    25     4     5    1
    26     5     6    1
    27     4     7    1
    28     7     8    1
    29    13    14   ar
    30    14    15   ar
    31    15    16   ar
    32    16    17   ar
    33    17    18    1
    34    16    19    1
    35    19    20    1
    36    20    21    1
    37    21    22    2
    38    21    23   am
    39    17    12   ar
    40     6     1    1
    41    23    15    1
    42     8     1    1
    43    39    29   ar
    44    39    34   ar
    45     9    10    1
    46    23    24    1
@<TRIPOS>MOLECULE
*****
 41 46 0 0 0
SMALL
GASTEIGER

@<TRIPOS>ATOM
      1 C         145.0029  141.0671  163.3804 C.3     1  UNL1        0.0700
      2 C         144.5754  141.2487  161.9542 C.3     1  UNL1        0.0193
      3 C         143.8007  140.1678  161.2601 C.3     1  UNL1        0.0286
      4 C         143.4537  138.9055  161.9922 C.3     1  UNL1        0.0932
      5 C         143.8813  138.7240  163.4185 C.3     1  UNL1        0.0286
      6 C         144.6559  139.8048  164.1126 C.3     1  UNL1        0.0193
      7 O         143.8797  139.4696  162.4145 O.3     1  UNL1       -0.3572
      8 C         144.5801  140.4469  163.0421 C.3     1  UNL1        0.1562
      9 N         145.7776  142.1480  164.0745 N.3     1  UNL1       -0.2926
     10 H         146.4806  141.6836  164.6493 H       1  UNL1        0.1236
     11 C         145.0685  143.1261  164.9636 C.3     1  UNL1        0.1148
     12 C         142.5816  142.7645  165.6229 C.ar    1  UNL1       -0.0082
     13 C         143.6123  143.4156  164.7491 C.ar    1  UNL1        0.0722
     14 N         143.1870  144.3562  163.6609 N.ar    1  UNL1       -0.2308
     15 C         141.7309  144.6457  163.4464 C.ar    1  UNL1        0.1679
     16 C         140.7001  143.9946  164.3202 C.ar    1  UNL1        0.1664
     17 C         141.1255  143.0539  165.4085 C.ar    1  UNL1        0.0122
     18 C         140.0947  142.4028  166.2823 C.3     1  UNL1        0.0340
     19 O         139.2441  144.2841  164.1057 O.3     1  UNL1       -0.4631
     20 C         138.8188  145.2247  163.0175 C.3     1  UNL1        0.2898
     21 C         139.8495  145.8758  162.1437 C.2     1  UNL1        0.2718
     22 O         139.4242  146.8165  161.0554 O.2     1  UNL1       -0.2707
     23 N         141.3056  145.5864  162.3581 N.am    1  UNL1       -0.2639
     24 H         141.9821  146.0137  161.7846 H       1  UNL1        0.1565
     25 C         143.1856  142.3293  168.1121 C.3     1  UNL1        0.0051
     26 C         143.0069  141.8238  166.7112 C.3     1  UNL1        0.0274
     27 C         142.6791  137.8247  161.2982 C.3     1  UNL1        0.0320
     28 C         141.1935  137.9532  161.1352 C.3     1  UNL1        0.0327
     29 C         140.3430  138.3566  162.3032 C.ar    1  UNL1        0.0261
     30 C         140.3635  137.5422  163.5627 C.ar    1  UNL1        0.1566
     31 F         141.2346  136.3244  163.6542 F       1  UNL1       -0.2028
     32 C         139.5131  137.9455  164.7305 C.ar    1  UNL1        0.1281
     33 N         138.6421  139.1634  164.6390 N.ar    1  UNL1       -0.2400
     34 C         138.6215  139.9778  163.3795 C.ar    1  UNL1        0.0990
     35 C         137.7506  141.1955  163.2879 C.ar    1  UNL1        0.0254
     36 C         137.7301  142.0099  162.0284 C.ar    1  UNL1        0.0593
     37 C         138.5805  141.6066  160.8605 C.ar    1  UNL1        0.2250
     38 N         139.4515  140.3888  160.9521 N.ar    1  UNL1       -0.2104
     39 C         139.4721  139.5743  162.2116 C.ar    1  UNL1        0.1002
     40 O         138.5600  142.4210  159.6010 O.3     1  UNL1       -0.4561
     41 C         138.1858  141.7783  158.2983 C.3     1  UNL1        0.2542
@<TRIPOS>BOND
     1    25    26    1
     2    26    12    1
     3    12    13   ar
     4    13    11    1
     5    11     9    1
     6     9     1    1
     7     1     2    1
     8     2     3    1
     9     3     4    1
    10     4    27    1
    11    27    28    1
    12    28    29    1
    13    29    30   ar
    14    30    31    1
    15    30    32   ar
    16    32    33   ar
    17    33    34   ar
    18    34    35   ar
    19    35    36   ar
    20    36    37   ar
    21    37    40    1
    22    40    41    1
    23    37    38   ar
    24    38    39   ar
    25     4     5    1
    26     5     6    1
    27     4     7    1
    28     7     8    1
    29    13    14   ar
    30    14    15   ar
    31    15    16   ar
    32    16    17   ar
    33    17    18    1
    34    16    19    1
    35    19    20    1
    36    20    21    1
    37    21    22    2
    38    21    23   am
    39    17    12   ar
    40     6     1    1
    41    23    15    1
    42     8     1    1
    43    39    29   ar
    44    39    34   ar
    45     9    10    1
    46    23    24    1
@<TRIPOS>MOLECULE
*****
 41 46 0 0 0
SMALL
GASTEIGER

@<TRIPOS>ATOM
      1 C         138.0234  142.4281  164.0667 C.3     1  UNL1        0.0700
      2 C         138.4631  141.4292  165.0957 C.3     1  UNL1        0.0193
      3 C         138.6227  139.9858  164.7196 C.3     1  UNL1        0.0286
      4 C         138.3426  139.5415  163.3145 C.3     1  UNL1        0.0932
      5 C         137.9029  140.5406  162.2856 C.3     1  UNL1        0.0286
      6 C         137.7434  141.9838  162.6617 C.3     1  UNL1        0.0193
      7 O         138.2412  140.3431  163.4733 O.3     1  UNL1       -0.3572
      8 C         138.0969  141.6482  163.8134 C.3     1  UNL1        0.1562
      9 N         137.8639  143.8714  164.4428 N.3     1  UNL1       -0.2926
     10 H         137.1114  144.2450  163.8643 H       1  UNL1        0.1236
     11 C         139.0227  144.8142  164.3079 C.3     1  UNL1        0.1148
     12 C         141.2772  144.2016  163.1711 C.ar    1  UNL1       -0.0082
     13 C         139.8902  144.7661  163.0850 C.ar    1  UNL1        0.0722
     14 N         139.3706  145.2826  161.7762 N.ar    1  UNL1       -0.2308
     15 C         140.2380  145.2346  160.5533 C.ar    1  UNL1        0.1679
     16 C         141.6250  144.6700  160.6394 C.ar    1  UNL1        0.1664
     17 C         142.1446  144.1535  161.9484 C.ar    1  UNL1        0.0122
     18 C         143.5317  143.5890  162.0345 C.3     1  UNL1        0.0340
     19 O         142.4925  144.6220  159.4166 O.3     1  UNL1       -0.4631
     20 C         141.9729  145.1385  158.1078 C.3     1  UNL1        0.2898
     21 C         140.5858  145.7030  158.0217 C.2     1  UNL1        0.2718
     22 O         140.0663  146.2195  156.7127 O.2     1  UNL1       -0.2707
     23 N         139.7184  145.7511  159.2444 N.am    1  UNL1       -0.2639
     24 H         138.8080  146.1216  159.1879 H       1  UNL1        0.1565
     25 C         141.8119  142.2100  164.7515 C.3     1  UNL1        0.0051
     26 C         141.7968  143.6851  164.4801 C.3     1  UNL1        0.0274
     27 C         138.5022  138.0983  162.9384 C.3     1  UNL1        0.0320
     28 C         139.8735  137.5149  162.7680 C.3     1  UNL1        0.0327
     29 C         140.9520  138.3164  162.1013 C.ar    1  UNL1        0.0261
     30 C         140.8301  138.6771  160.6504 C.ar    1  UNL1        0.1566
     31 F         139.6297  138.2363  159.8662 F       1  UNL1       -0.2028
     32 C         141.9086  139.4786  159.9837 C.ar    1  UNL1        0.1281
     33 N         143.1090  139.9194  160.7678 N.ar    1  UNL1       -0.2400
     34 C         143.2308  139.5587  162.2187 C.ar    1  UNL1        0.0990
     35 C         144.4311  139.9994  163.0028 C.ar    1  UNL1        0.0254
     36 C         144.5530  139.6387  164.4537 C.ar    1  UNL1        0.0593
     37 C         143.4746  138.8373  165.1205 C.ar    1  UNL1        0.2250
     38 N         142.2742  138.3965  164.3363 N.ar    1  UNL1       -0.2104
     39 C         142.1523  138.7572  162.8854 C.ar    1  UNL1        0.1002
     40 O         143.5964  138.4766  166.5713 O.3     1  UNL1       -0.4561
     41 C         142.7892  139.2144  167.5980 C.3     1  UNL1        0.2542
@<TRIPOS>BOND
     1    25    26    1
     2    26    12    1
     3    12    13   ar
     4    13    11    1
     5    11     9    1
     6     9     1    1
     7     1     2    1
     8     2     3    1
     9     3     4    1
    10     4    27    1
    11    27    28    1
    12    28    29    1
    13    29    30   ar
    14    30    31    1
    15    30    32   ar
    16    32    33   ar
    17    33    34   ar
    18    34    35   ar
    19    35    36   ar
    20    36    37   ar
    21    37    40    1
    22    40    41    1
    23    37    38   ar
    24    38    39   ar
    25     4     5    1
    26     5     6    1
    27     4     7    1
    28     7     8    1
    29    13    14   ar
    30    14    15   ar
    31    15    16   ar
    32    16    17   ar
    33    17    18    1
    34    16    19    1
    35    19    20    1
    36    20    21    1
    37    21    22    2
    38    21    23   am
    39    17    12   ar
    40     6     1    1
    41    23    15    1
    42     8     1    1
    43    39    29   ar
    44    39    34   ar
    45     9    10    1
    46    23    24    1
@<TRIPOS>MOLECULE
*****
 41 46 0 0 0
SMALL
GASTEIGER

@<TRIPOS>ATOM
      1 C         140.0179  144.1189  162.3503 C.3     1  UNL1        0.0700
      2 C         141.1642  143.7509  161.4556 C.3     1  UNL1        0.0193
      3 C         142.5522  143.6542  162.0163 C.3     1  UNL1        0.0286
      4 C         142.7938  143.9256  163.4716 C.3     1  UNL1        0.0932
      5 C         141.6474  144.2936  164.3663 C.3     1  UNL1        0.0286
      6 C         140.2595  144.3902  163.8056 C.3     1  UNL1        0.0193
      7 O         142.0158  143.9910  163.2101 O.3     1  UNL1       -0.3572
      8 C         140.7608  144.0783  162.7031 C.3     1  UNL1        0.1562
      9 N         138.6300  144.2155  161.7896 N.3     1  UNL1       -0.2926
     10 H         138.0418  144.6067  162.5254 H       1  UNL1        0.1236
     11 C         137.9358  142.9836  161.2893 C.3     1  UNL1        0.1148
     12 C         138.5840  140.4694  161.1947 C.ar    1  UNL1       -0.0082
     13 C         138.1479  141.6698  161.9814 C.ar    1  UNL1        0.0722
     14 N         137.9238  141.5563  163.4602 N.ar    1  UNL1       -0.2308
     15 C         138.1359  140.2425  164.1523 C.ar    1  UNL1        0.1679
     16 C         138.5720  139.0422  163.3656 C.ar    1  UNL1        0.1664
     17 C         138.7961  139.1556  161.8867 C.ar    1  UNL1        0.0122
     18 C         139.2322  137.9553  161.1000 C.3     1  UNL1        0.0340
     19 O         138.7841  137.7284  164.0576 O.3     1  UNL1       -0.4631
     20 C         138.5601  137.6150  165.5364 C.3     1  UNL1        0.2898
     21 C         138.1239  138.8153  166.3232 C.2     1  UNL1        0.2718
     22 O         137.8999  138.7018  167.8021 O.2     1  UNL1       -0.2707
     23 N         137.9119  140.1291  165.6311 N.am    1  UNL1       -0.2639
     24 H         137.6256  140.9169  166.1475 H       1  UNL1        0.1565
     25 C         140.1620  140.9557  159.1888 C.3     1  UNL1        0.0051
     26 C         138.8081  140.5829  159.7158 C.3     1  UNL1        0.0274
     27 C         144.1817  143.8289  164.0323 C.3     1  UNL1        0.0320
     28 C         144.7112  142.5057  164.4997 C.3     1  UNL1        0.0327
     29 C         143.7608  141.4207  164.9118 C.ar    1  UNL1        0.0261
     30 C         143.1247  141.4568  166.2698 C.ar    1  UNL1        0.1566
     31 F         143.4390  142.5778  167.2157 F       1  UNL1       -0.2028
     32 C         142.1744  140.3719  166.6818 C.ar    1  UNL1        0.1281
     33 N         141.8601  139.2509  165.7359 N.ar    1  UNL1       -0.2400
     34 C         142.4962  139.2149  164.3780 C.ar    1  UNL1        0.0990
     35 C         142.1820  138.0939  163.4321 C.ar    1  UNL1        0.0254
     36 C         142.8181  138.0579  162.0741 C.ar    1  UNL1        0.0593
     37 C         143.7684  139.1428  161.6620 C.ar    1  UNL1        0.2250
     38 N         144.0827  140.2638  162.6079 N.ar    1  UNL1       -0.2104
     39 C         143.4466  140.2998  163.9659 C.ar    1  UNL1        0.1002
     40 O         144.4045  139.1067  160.3041 O.3     1  UNL1       -0.4561
     41 C         143.6734  139.6631  159.1184 C.3     1  UNL1        0.2542
@<TRIPOS>BOND
     1    25    26    1
     2    26    12    1
     3    12    13   ar
     4    13    11    1
     5    11     9    1
     6     9     1    1
     7     1     2    1
     8     2     3    1
     9     3     4    1
    10     4    27    1
    11    27    28    1
    12    28    29    1
    13    29    30   ar
    14    30    31    1
    15    30    32   ar
    16    32    33   ar
    17    33    34   ar
    18    34    35   ar
    19    35    36   ar
    20    36    37   ar
    21    37    40    1
    22    40    41    1
    23    37    38   ar
    24    38    39   ar
    25     4     5    1
    26     5     6    1
    27     4     7    1
    28     7     8    1
    29    13    14   ar
    30    14    15   ar
    31    15    16   ar
    32    16    17   ar
    33    17    18    1
    34    16    19    1
    35    19    20    1
    36    20    21    1
    37    21    22    2
    38    21    23   am
    39    17    12   ar
    40     6     1    1
    41    23    15    1
    42     8     1    1
    43    39    29   ar
    44    39    34   ar
    45     9    10    1
    46    23    24    1
@<TRIPOS>MOLECULE
*****
 41 46 0 0 0
SMALL
GASTEIGER

@<TRIPOS>ATOM
      1 C         141.7045  137.8695  162.2586 C.3     1  UNL1        0.0700
      2 C         142.0715  137.6426  163.6952 C.3     1  UNL1        0.0193
      3 C         140.9971  137.5474  164.7377 C.3     1  UNL1        0.0286
      4 C         139.5558  137.6789  164.3435 C.3     1  UNL1        0.0932
      5 C         139.1889  137.9058  162.9068 C.3     1  UNL1        0.0286
      6 C         140.2632  138.0010  161.8644 C.3     1  UNL1        0.0193
      7 O         140.1093  137.7381  163.7368 O.3     1  UNL1       -0.3572
      8 C         141.0808  137.8242  162.7942 C.3     1  UNL1        0.1562
      9 N         142.7789  137.9647  161.2162 N.3     1  UNL1       -0.2926
     10 H         143.2967  137.0864  161.2459 H       1  UNL1        0.1236
     11 C         143.7931  139.0679  161.2830 C.3     1  UNL1        0.1148
     12 C         144.0651  140.9328  163.0713 C.ar    1  UNL1       -0.0082
     13 C         143.4062  140.4103  161.8292 C.ar    1  UNL1        0.0722
     14 N         142.3605  141.2301  161.1333 N.ar    1  UNL1       -0.2308
     15 C         141.9736  142.5725  161.6796 C.ar    1  UNL1        0.1679
     16 C         142.6324  143.0951  162.9217 C.ar    1  UNL1        0.1664
     17 C         143.6782  142.2751  163.6176 C.ar    1  UNL1        0.0122
     18 C         144.3371  142.7977  164.8597 C.3     1  UNL1        0.0340
     19 O         142.2456  144.4374  163.4679 O.3     1  UNL1       -0.4631
     20 C         141.1999  145.2572  162.7720 C.3     1  UNL1        0.2898
     21 C         140.5410  144.7347  161.5299 C.2     1  UNL1        0.2718
     22 O         139.4952  145.5546  160.8340 O.2     1  UNL1       -0.2707
     23 N         140.9278  143.3923  160.9837 N.am    1  UNL1       -0.2639
     24 H         140.4954  143.0494  160.1684 H       1  UNL1        0.1565
     25 C         144.7337  139.2519  164.9361 C.3     1  UNL1        0.0051
     26 C         145.1108  140.1129  163.7672 C.3     1  UNL1        0.0274
     27 C         138.4815  137.5837  165.3859 C.3     1  UNL1        0.0320
     28 C         138.0083  138.8205  166.0903 C.3     1  UNL1        0.0327
     29 C         138.6577  140.1419  165.8036 C.ar    1  UNL1        0.0261
     30 C         138.2290  140.9453  164.6116 C.ar    1  UNL1        0.1566
     31 F         137.1509  140.4272  163.7063 F       1  UNL1       -0.2028
     32 C         138.8784  142.2666  164.3248 C.ar    1  UNL1        0.1281
     33 N         139.9565  142.7847  165.2300 N.ar    1  UNL1       -0.2400
     34 C         140.3852  141.9814  166.4220 C.ar    1  UNL1        0.0990
     35 C         141.4632  142.4994  167.3272 C.ar    1  UNL1        0.0254
     36 C         141.8919  141.6961  168.5192 C.ar    1  UNL1        0.0593
     37 C         141.2425  140.3747  168.8060 C.ar    1  UNL1        0.2250
     38 N         140.1644  139.8566  167.9008 N.ar    1  UNL1       -0.2104
     39 C         139.7357  140.6600  166.7088 C.ar    1  UNL1        0.1002
     40 O         141.6712  139.5714  169.9980 O.3     1  UNL1       -0.4561
     41 C         142.9356  139.9233  170.7243 C.3     1  UNL1        0.2542
@<TRIPOS>BOND
     1    25    26    1
     2    26    12    1
     3    12    13   ar
     4    13    11    1
     5    11     9    1
     6     9     1    1
     7     1     2    1
     8     2     3    1
     9     3     4    1
    10     4    27    1
    11    27    28    1
    12    28    29    1
    13    29    30   ar
    14    30    31    1
    15    30    32   ar
    16    32    33   ar
    17    33    34   ar
    18    34    35   ar
    19    35    36   ar
    20    36    37   ar
    21    37    40    1
    22    40    41    1
    23    37    38   ar
    24    38    39   ar
    25     4     5    1
    26     5     6    1
    27     4     7    1
    28     7     8    1
    29    13    14   ar
    30    14    15   ar
    31    15    16   ar
    32    16    17   ar
    33    17    18    1
    34    16    19    1
    35    19    20    1
    36    20    21    1
    37    21    22    2
    38    21    23   am
    39    17    12   ar
    40     6     1    1
    41    23    15    1
    42     8     1    1
    43    39    29   ar
    44    39    34   ar
    45     9    10    1
    46    23    24    1
@<TRIPOS>MOLECULE
*****
 41 46 0 0 0
SMALL
GASTEIGER

@<TRIPOS>ATOM
      1 C         138.5428  143.1516  162.9993 C.3     1  UNL1        0.0700
      2 C         137.6343  142.1654  163.6717 C.3     1  UNL1        0.0193
      3 C         137.4497  140.7963  163.0873 C.3     1  UNL1        0.0286
      4 C         138.1735  140.4134  161.8305 C.3     1  UNL1        0.0932
      5 C         139.0820  141.3996  161.1581 C.3     1  UNL1        0.0286
      6 C         139.2666  142.7687  161.7425 C.3     1  UNL1        0.0193
      7 O         138.3064  141.1752  162.1132 O.3     1  UNL1       -0.3572
      8 C         138.4733  142.4132  162.6416 C.3     1  UNL1        0.1562
      9 N         138.7275  144.5206  163.5837 N.3     1  UNL1       -0.2926
     10 H         138.7479  145.1745  162.8011 H       1  UNL1        0.1236
     11 C         139.9300  144.8193  164.4290 C.3     1  UNL1        0.1148
     12 C         141.9790  143.2311  164.6001 C.ar    1  UNL1       -0.0082
     13 C         140.6549  143.7041  165.1226 C.ar    1  UNL1        0.0722
     14 N         140.0558  143.0621  166.3386 N.ar    1  UNL1       -0.2308
     15 C         140.7807  141.9469  167.0322 C.ar    1  UNL1        0.1679
     16 C         142.1048  141.4739  166.5096 C.ar    1  UNL1        0.1664
     17 C         142.7040  142.1160  165.2935 C.ar    1  UNL1        0.0122
     18 C         144.0280  141.6429  164.7710 C.3     1  UNL1        0.0340
     19 O         142.8298  140.3588  167.2031 O.3     1  UNL1       -0.4631
     20 C         142.2306  139.7167  168.4191 C.3     1  UNL1        0.2898
     21 C         140.9065  140.1897  168.9416 C.2     1  UNL1        0.2718
     22 O         140.3074  139.5476  170.1577 O.2     1  UNL1       -0.2707
     23 N         140.1816  141.3048  168.2482 N.am    1  UNL1       -0.2639
     24 H         139.3126  141.6153  168.5911 H       1  UNL1        0.1565
     25 C         143.5189  145.0318  163.5341 C.3     1  UNL1        0.0051
     26 C         142.5782  143.8732  163.3840 C.3     1  UNL1        0.0274
     27 C         137.9888  139.0443  161.2461 C.3     1  UNL1        0.0320
     28 C         138.6177  137.8548  161.9091 C.3     1  UNL1        0.0327
     29 C         139.8580  138.0253  162.7355 C.ar    1  UNL1        0.0261
     30 C         139.7685  138.0179  164.2328 C.ar    1  UNL1        0.1566
     31 F         138.4387  137.8400  164.9038 F       1  UNL1       -0.2028
     32 C         141.0086  138.1884  165.0591 C.ar    1  UNL1        0.1281
     33 N         142.3384  138.3663  164.3881 N.ar    1  UNL1       -0.2400
     34 C         142.4279  138.3737  162.8908 C.ar    1  UNL1        0.0990
     35 C         143.7576  138.5516  162.2198 C.ar    1  UNL1        0.0254
     36 C         143.8471  138.5590  160.7225 C.ar    1  UNL1        0.0593
     37 C         142.6069  138.3886  159.8962 C.ar    1  UNL1        0.2250
     38 N         141.2771  138.2106  160.5672 N.ar    1  UNL1       -0.2104
     39 C         141.1876  138.2032  162.0645 C.ar    1  UNL1        0.1002
     40 O         142.6964  138.3960  158.3989 O.3     1  UNL1       -0.4561
     41 C         142.7166  137.1010  157.6423 C.3     1  UNL1        0.2542
@<TRIPOS>BOND
     1    25    26    1
     2    26    12    1
     3    12    13   ar
     4    13    11    1
     5    11     9    1
     6     9     1    1
     7     1     2    1
     8     2     3    1
     9     3     4    1
    10     4    27    1
    11    27    28    1
    12    28    29    1
    13    29    30   ar
    14    30    31    1
    15    30    32   ar
    16    32    33   ar
    17    33    34   ar
    18    34    35   ar
    19    35    36   ar
    20    36    37   ar
    21    37    40    1
    22    40    41    1
    23    37    38   ar
    24    38    39   ar
    25     4     5    1
    26     5     6    1
    27     4     7    1
    28     7     8    1
    29    13    14   ar
    30    14    15   ar
    31    15    16   ar
    32    16    17   ar
    33    17    18    1
    34    16    19    1
    35    19    20    1
    36    20    21    1
    37    21    22    2
    38    21    23   am
    39    17    12   ar
    40     6     1    1
    41    23    15    1
    42     8     1    1
    43    39    29   ar
    44    39    34   ar
    45     9    10    1
    46    23    24    1
