@<TRIPOS>MOLECULE
*****
 28 31 0 0 0
SMALL
GASTEIGER

@<TRIPOS>ATOM
      1 C         141.0860  139.5163  166.0905 C.3     1  UNL1        0.0252
      2 C         142.5466  139.2423  166.2949 C.3     1  UNL1        0.0217
      3 C         143.4618  139.1322  165.1115 C.3     1  UNL1        0.0724
      4 N         142.9164  139.2962  163.7238 N.3     1  UNL1       -0.2726
      5 C         141.4559  139.5702  163.5194 C.3     1  UNL1        0.0724
      6 C         140.5407  139.6802  164.7028 C.3     1  UNL1        0.0217
      7 C         138.3404  139.8464  169.6405 C.ar    1  UNL1        0.1724
      8 C         137.8382  139.2560  168.3563 C.ar    1  UNL1        0.0397
      9 C         138.7534  139.1460  167.1729 C.ar    1  UNL1       -0.0010
     10 C         140.1708  139.6263  167.2738 C.ar    1  UNL1       -0.0192
     11 C         140.6731  140.2167  168.5581 C.ar    1  UNL1        0.0358
     12 C         139.7579  140.3267  169.7414 C.ar    1  UNL1        0.1721
     13 C         136.4403  138.8630  171.1145 C.3     1  UNL1        0.2526
     14 O         137.4252  139.9564  170.8238 O.3     1  UNL1       -0.4684
     15 O         140.2601  140.9171  171.0256 O.3     1  UNL1       -0.4684
     16 C         141.5686  141.6499  171.0530 C.3     1  UNL1        0.2526
     17 C         143.8316  139.1862  162.5405 C.3     1  UNL1        0.0724
     18 C         144.7071  140.3430  162.1593 C.3     1  UNL1        0.0219
     19 C         144.0940  141.6741  161.8396 C.3     1  UNL1        0.0304
     20 C         143.5081  141.9232  160.4814 C.3     1  UNL1        0.0518
     21 C         142.8950  143.2543  160.1617 C.3     1  UNL1        0.2057
     22 O         142.8679  144.3364  161.2001 O.3     1  UNL1       -0.4758
     23 C         143.4538  144.0874  162.5583 C.ar    1  UNL1        0.1345
     24 C         143.4267  145.1694  163.5967 C.ar    1  UNL1        0.0366
     25 C         144.0126  144.9204  164.9549 C.ar    1  UNL1        0.0031
     26 C         144.6257  143.5892  165.2746 C.ar    1  UNL1       -0.0001
     27 C         144.6528  142.5072  164.2362 C.ar    1  UNL1       -0.0013
     28 C         144.0669  142.7562  162.8781 C.ar    1  UNL1        0.0116
@<TRIPOS>BOND
     1    13    14    1
     2    14     7    1
     3     7     8   ar
     4     8     9   ar
     5     9    10   ar
     6    10     1    1
     7     1     2    1
     8     2     3    1
     9     3     4    1
    10     4    17    1
    11    17    18    1
    12    18    19    1
    13    19    20    1
    14    20    21    1
    15    21    22    1
    16    22    23    1
    17    23    24   ar
    18    24    25   ar
    19    25    26   ar
    20    26    27   ar
    21    27    28   ar
    22     4     5    1
    23     5     6    1
    24    10    11   ar
    25    11    12   ar
    26    12    15    1
    27    15    16    1
    28    12     7   ar
    29     6     1    1
    30    28    19    1
    31    28    23   ar
@<TRIPOS>MOLECULE
*****
 28 31 0 0 0
SMALL
GASTEIGER

@<TRIPOS>ATOM
      1 C         139.5587  139.1041  164.9439 C.3     1  UNL1        0.0252
      2 C         139.6770  137.7498  164.3097 C.3     1  UNL1        0.0217
      3 C         140.1322  137.6256  162.8859 C.3     1  UNL1        0.0724
      4 N         140.4691  138.8556  162.0962 N.3     1  UNL1       -0.2726
      5 C         140.3508  140.2098  162.7303 C.3     1  UNL1        0.0724
      6 C         139.8956  140.3340  164.1541 C.3     1  UNL1        0.0217
      7 C         138.1930  139.4768  169.2154 C.ar    1  UNL1        0.1724
      8 C         137.3795  138.6861  168.2342 C.ar    1  UNL1        0.0397
      9 C         137.8347  138.5619  166.8103 C.ar    1  UNL1       -0.0010
     10 C         139.1035  139.2283  166.3677 C.ar    1  UNL1       -0.0192
     11 C         139.9171  140.0191  167.3490 C.ar    1  UNL1        0.0358
     12 C         139.4619  140.1433  168.7728 C.ar    1  UNL1        0.1721
     13 C         136.4826  138.9133  171.0881 C.3     1  UNL1        0.2526
     14 O         137.7378  139.6010  170.6393 O.3     1  UNL1       -0.4684
     15 O         140.2755  140.9340  169.7540 O.3     1  UNL1       -0.4684
     16 C         139.9479  142.3751  170.0109 C.3     1  UNL1        0.2526
     17 C         140.9243  138.7314  160.6723 C.3     1  UNL1        0.0724
     18 C         142.3891  138.7435  160.3494 C.3     1  UNL1        0.0219
     19 C         143.1756  140.0140  160.4806 C.3     1  UNL1        0.0304
     20 C         143.1667  141.0198  159.3679 C.3     1  UNL1        0.0518
     21 C         143.9533  142.2903  159.4991 C.3     1  UNL1        0.2057
     22 O         144.7486  142.5550  160.7430 O.3     1  UNL1       -0.4758
     23 C         144.7575  141.5491  161.8558 C.ar    1  UNL1        0.1345
     24 C         145.5528  141.8138  163.0997 C.ar    1  UNL1        0.0366
     25 C         145.5617  140.8079  164.2124 C.ar    1  UNL1        0.0031
     26 C         144.7751  139.5374  164.0812 C.ar    1  UNL1       -0.0001
     27 C         143.9798  139.2728  162.8373 C.ar    1  UNL1       -0.0013
     28 C         143.9710  140.2786  161.7246 C.ar    1  UNL1        0.0116
@<TRIPOS>BOND
     1    13    14    1
     2    14     7    1
     3     7     8   ar
     4     8     9   ar
     5     9    10   ar
     6    10     1    1
     7     1     2    1
     8     2     3    1
     9     3     4    1
    10     4    17    1
    11    17    18    1
    12    18    19    1
    13    19    20    1
    14    20    21    1
    15    21    22    1
    16    22    23    1
    17    23    24   ar
    18    24    25   ar
    19    25    26   ar
    20    26    27   ar
    21    27    28   ar
    22     4     5    1
    23     5     6    1
    24    10    11   ar
    25    11    12   ar
    26    12    15    1
    27    15    16    1
    28    12     7   ar
    29     6     1    1
    30    28    19    1
    31    28    23   ar
@<TRIPOS>MOLECULE
*****
 28 31 0 0 0
SMALL
GASTEIGER

@<TRIPOS>ATOM
      1 C         143.2934  142.2077  161.7994 C.3     1  UNL1        0.0252
      2 C         143.4339  142.7074  163.2067 C.3     1  UNL1        0.0217
      3 C         143.9926  141.8084  164.2696 C.3     1  UNL1        0.0724
      4 N         144.4108  140.4096  163.9250 N.3     1  UNL1       -0.2726
      5 C         144.2704  139.9100  162.5177 C.3     1  UNL1        0.0724
      6 C         143.7117  140.8090  161.4549 C.3     1  UNL1        0.0217
      7 C         141.6174  144.9048  158.6109 C.ar    1  UNL1        0.1724
      8 C         142.7414  143.9666  158.2849 C.ar    1  UNL1        0.0397
      9 C         143.3001  143.0676  159.3477 C.ar    1  UNL1       -0.0010
     10 C         142.7347  143.1067  160.7365 C.ar    1  UNL1       -0.0192
     11 C         141.6106  144.0449  161.0626 C.ar    1  UNL1        0.0358
     12 C         141.0519  144.9440  159.9997 C.ar    1  UNL1        0.1721
     13 C         140.0163  145.2877  156.6009 C.3     1  UNL1        0.2526
     14 O         141.0587  145.8038  157.5480 O.3     1  UNL1       -0.4684
     15 O         139.9279  145.8821  160.3257 O.3     1  UNL1       -0.4684
     16 C         139.6489  146.2512  161.7525 C.3     1  UNL1        0.2526
     17 C         144.9695  139.5106  164.9879 C.3     1  UNL1        0.0724
     18 C         144.0786  138.5196  165.6764 C.3     1  UNL1        0.0219
     19 C         142.7042  138.9268  166.1181 C.3     1  UNL1        0.0304
     20 C         142.5276  139.7388  167.3669 C.3     1  UNL1        0.0518
     21 C         141.1532  140.1460  167.8086 C.3     1  UNL1        0.2057
     22 O         139.9554  139.7413  167.0016 O.3     1  UNL1       -0.4758
     23 C         140.1319  138.9293  165.7528 C.ar    1  UNL1        0.1345
     24 C         138.9341  138.5245  164.9457 C.ar    1  UNL1        0.0366
     25 C         139.1107  137.7126  163.6970 C.ar    1  UNL1        0.0031
     26 C         140.4851  137.3053  163.2552 C.ar    1  UNL1       -0.0001
     27 C         141.6829  137.7101  164.0622 C.ar    1  UNL1       -0.0013
     28 C         141.5063  138.5220  165.3110 C.ar    1  UNL1        0.0116
@<TRIPOS>BOND
     1    13    14    1
     2    14     7    1
     3     7     8   ar
     4     8     9   ar
     5     9    10   ar
     6    10     1    1
     7     1     2    1
     8     2     3    1
     9     3     4    1
    10     4    17    1
    11    17    18    1
    12    18    19    1
    13    19    20    1
    14    20    21    1
    15    21    22    1
    16    22    23    1
    17    23    24   ar
    18    24    25   ar
    19    25    26   ar
    20    26    27   ar
    21    27    28   ar
    22     4     5    1
    23     5     6    1
    24    10    11   ar
    25    11    12   ar
    26    12    15    1
    27    15    16    1
    28    12     7   ar
    29     6     1    1
    30    28    19    1
    31    28    23   ar
@<TRIPOS>MOLECULE
*****
 28 31 0 0 0
SMALL
GASTEIGER

@<TRIPOS>ATOM
      1 C         141.3270  143.6522  163.5928 C.3     1  UNL1        0.0252
      2 C         140.0956  143.5730  164.4458 C.3     1  UNL1        0.0217
      3 C         140.1787  143.0056  165.8319 C.3     1  UNL1        0.0724
      4 N         141.4931  142.5172  166.3648 N.3     1  UNL1       -0.2726
      5 C         142.7244  142.5964  165.5118 C.3     1  UNL1        0.0724
      6 C         142.6413  143.1639  164.1257 C.3     1  UNL1        0.0217
      7 C         141.0777  145.3546  159.4347 C.ar    1  UNL1        0.1724
      8 C         140.1427  145.8415  160.5018 C.ar    1  UNL1        0.0397
      9 C         140.2258  145.2740  161.8878 C.ar    1  UNL1       -0.0010
     10 C         141.2439  144.2196  162.2067 C.ar    1  UNL1       -0.0192
     11 C         142.1789  143.7326  161.1396 C.ar    1  UNL1        0.0358
     12 C         142.0958  144.3001  159.7536 C.ar    1  UNL1        0.1721
     13 C         140.2524  145.1794  156.9774 C.3     1  UNL1        0.2526
     14 O         140.9946  145.9220  158.0487 O.3     1  UNL1       -0.4684
     15 O         143.0308  143.8132  158.6865 O.3     1  UNL1       -0.4684
     16 C         144.0613  142.7725  159.0102 C.3     1  UNL1        0.2526
     17 C         141.5762  141.9498  167.7509 C.3     1  UNL1        0.0724
     18 C         141.4170  140.4741  167.9679 C.3     1  UNL1        0.0219
     19 C         140.3960  139.7063  167.1819 C.3     1  UNL1        0.0304
     20 C         138.9794  139.6267  167.6684 C.3     1  UNL1        0.0518
     21 C         137.9584  138.8589  166.8823 C.3     1  UNL1        0.2057
     22 O         138.3540  138.1705  165.6097 O.3     1  UNL1       -0.4758
     23 C         139.7708  138.2500  165.1231 C.ar    1  UNL1        0.1345
     24 C         140.1664  137.5616  163.8505 C.ar    1  UNL1        0.0366
     25 C         141.5830  137.6411  163.3640 C.ar    1  UNL1        0.0031
     26 C         142.6040  138.4090  164.1501 C.ar    1  UNL1       -0.0001
     27 C         142.2084  139.0974  165.4227 C.ar    1  UNL1       -0.0013
     28 C         140.7918  139.0179  165.9092 C.ar    1  UNL1        0.0116
@<TRIPOS>BOND
     1    13    14    1
     2    14     7    1
     3     7     8   ar
     4     8     9   ar
     5     9    10   ar
     6    10     1    1
     7     1     2    1
     8     2     3    1
     9     3     4    1
    10     4    17    1
    11    17    18    1
    12    18    19    1
    13    19    20    1
    14    20    21    1
    15    21    22    1
    16    22    23    1
    17    23    24   ar
    18    24    25   ar
    19    25    26   ar
    20    26    27   ar
    21    27    28   ar
    22     4     5    1
    23     5     6    1
    24    10    11   ar
    25    11    12   ar
    26    12    15    1
    27    15    16    1
    28    12     7   ar
    29     6     1    1
    30    28    19    1
    31    28    23   ar
@<TRIPOS>MOLECULE
*****
 28 31 0 0 0
SMALL
GASTEIGER

@<TRIPOS>ATOM
      1 C         143.6614  141.5596  162.3751 C.3     1  UNL1        0.0252
      2 C         143.7877  140.3421  163.2423 C.3     1  UNL1        0.0217
      3 C         143.5767  140.4511  164.7234 C.3     1  UNL1        0.0724
      4 N         143.2394  141.7775  165.3373 N.3     1  UNL1       -0.2726
      5 C         143.1131  142.9949  164.4702 C.3     1  UNL1        0.0724
      6 C         143.3241  142.8860  162.9891 C.3     1  UNL1        0.0217
      7 C         144.2943  141.2327  157.9319 C.ar    1  UNL1        0.1724
      8 C         144.6247  142.5106  158.6445 C.ar    1  UNL1        0.0397
      9 C         144.4137  142.6195  160.1256 C.ar    1  UNL1       -0.0010
     10 C         143.8723  141.4506  160.8941 C.ar    1  UNL1       -0.0192
     11 C         143.5419  140.1727  160.1814 C.ar    1  UNL1        0.0358
     12 C         143.7529  140.0638  158.7003 C.ar    1  UNL1        0.1721
     13 C         145.8447  140.7170  155.9119 C.3     1  UNL1        0.2526
     14 O         144.5053  141.1238  156.4508 O.3     1  UNL1       -0.4684
     15 O         143.4224  138.7859  157.9877 O.3     1  UNL1       -0.4684
     16 C         142.6712  137.7016  158.7018 C.3     1  UNL1        0.2526
     17 C         143.0284  141.8865  166.8184 C.3     1  UNL1        0.0724
     18 C         141.6424  141.8074  167.3864 C.3     1  UNL1        0.0219
     19 C         140.5217  141.2564  166.5555 C.3     1  UNL1        0.0304
     20 C         140.2939  139.7752  166.4910 C.3     1  UNL1        0.0518
     21 C         139.1732  139.2242  165.6601 C.3     1  UNL1        0.2057
     22 O         138.2802  140.1544  164.8937 O.3     1  UNL1       -0.4758
     23 C         138.5080  141.6356  164.9581 C.ar    1  UNL1        0.1345
     24 C         137.6151  142.5658  164.1917 C.ar    1  UNL1        0.0366
     25 C         137.8429  144.0469  164.2562 C.ar    1  UNL1        0.0031
     26 C         138.9636  144.5980  165.0871 C.ar    1  UNL1       -0.0001
     27 C         139.8565  143.6678  165.8535 C.ar    1  UNL1       -0.0013
     28 C         139.6287  142.1866  165.7890 C.ar    1  UNL1        0.0116
@<TRIPOS>BOND
     1    13    14    1
     2    14     7    1
     3     7     8   ar
     4     8     9   ar
     5     9    10   ar
     6    10     1    1
     7     1     2    1
     8     2     3    1
     9     3     4    1
    10     4    17    1
    11    17    18    1
    12    18    19    1
    13    19    20    1
    14    20    21    1
    15    21    22    1
    16    22    23    1
    17    23    24   ar
    18    24    25   ar
    19    25    26   ar
    20    26    27   ar
    21    27    28   ar
    22     4     5    1
    23     5     6    1
    24    10    11   ar
    25    11    12   ar
    26    12    15    1
    27    15    16    1
    28    12     7   ar
    29     6     1    1
    30    28    19    1
    31    28    23   ar
@<TRIPOS>MOLECULE
*****
 28 31 0 0 0
SMALL
GASTEIGER

@<TRIPOS>ATOM
      1 C         142.1137  138.2563  161.6818 C.3     1  UNL1        0.0252
      2 C         143.3541  138.9842  162.1084 C.3     1  UNL1        0.0217
      3 C         143.7123  139.0670  163.5627 C.3     1  UNL1        0.0724
      4 N         142.8303  138.4219  164.5903 N.3     1  UNL1       -0.2726
      5 C         141.5900  137.6941  164.1636 C.3     1  UNL1        0.0724
      6 C         141.2317  137.6113  162.7094 C.3     1  UNL1        0.0217
      7 C         141.0389  138.0080  157.3191 C.ar    1  UNL1        0.1724
      8 C         140.0146  138.4547  158.3197 C.ar    1  UNL1        0.0397
      9 C         140.3728  138.5375  159.7739 C.ar    1  UNL1       -0.0010
     10 C         141.7555  138.1736  160.2276 C.ar    1  UNL1       -0.0192
     11 C         142.7799  137.7269  159.2270 C.ar    1  UNL1        0.0358
     12 C         142.4216  137.6441  157.7728 C.ar    1  UNL1        0.1721
     13 C         140.0606  136.6749  155.3152 C.3     1  UNL1        0.2526
     14 O         140.6807  137.9252  155.8649 O.3     1  UNL1       -0.4684
     15 O         143.4460  137.1974  156.7722 O.3     1  UNL1       -0.4684
     16 C         143.5391  135.7501  156.3893 C.3     1  UNL1        0.2526
     17 C         143.1885  138.5047  166.0445 C.3     1  UNL1        0.0724
     18 C         142.7607  139.6914  166.8560 C.3     1  UNL1        0.0219
     19 C         141.8024  140.6897  166.2771 C.3     1  UNL1        0.0304
     20 C         140.3242  140.4548  166.3754 C.3     1  UNL1        0.0518
     21 C         139.3660  141.4531  165.7965 C.3     1  UNL1        0.2057
     22 O         139.8859  142.6864  165.1193 O.3     1  UNL1       -0.4758
     23 C         141.3642  142.9214  165.0209 C.ar    1  UNL1        0.1345
     24 C         141.8841  144.1546  164.3437 C.ar    1  UNL1        0.0366
     25 C         143.3623  144.3896  164.2454 C.ar    1  UNL1        0.0031
     26 C         144.3206  143.3912  164.8243 C.ar    1  UNL1       -0.0001
     27 C         143.8006  142.1580  165.5015 C.ar    1  UNL1       -0.0013
     28 C         142.3224  141.9230  165.5998 C.ar    1  UNL1        0.0116
@<TRIPOS>BOND
     1    13    14    1
     2    14     7    1
     3     7     8   ar
     4     8     9   ar
     5     9    10   ar
     6    10     1    1
     7     1     2    1
     8     2     3    1
     9     3     4    1
    10     4    17    1
    11    17    18    1
    12    18    19    1
    13    19    20    1
    14    20    21    1
    15    21    22    1
    16    22    23    1
    17    23    24   ar
    18    24    25   ar
    19    25    26   ar
    20    26    27   ar
    21    27    28   ar
    22     4     5    1
    23     5     6    1
    24    10    11   ar
    25    11    12   ar
    26    12    15    1
    27    15    16    1
    28    12     7   ar
    29     6     1    1
    30    28    19    1
    31    28    23   ar
@<TRIPOS>MOLECULE
*****
 28 31 0 0 0
SMALL
GASTEIGER

@<TRIPOS>ATOM
      1 C         140.4565  138.3116  160.9406 C.3     1  UNL1        0.0252
      2 C         138.9876  138.4109  161.2281 C.3     1  UNL1        0.0217
      3 C         138.4791  138.1845  162.6210 C.3     1  UNL1        0.0724
      4 N         139.4394  137.8589  163.7264 N.3     1  UNL1       -0.2726
      5 C         140.9082  137.7597  163.4389 C.3     1  UNL1        0.0724
      6 C         141.4168  137.9861  162.0460 C.3     1  UNL1        0.0217
      7 C         141.9822  138.9907  156.7620 C.ar    1  UNL1        0.1724
      8 C         140.5591  138.5710  156.9818 C.ar    1  UNL1        0.0397
      9 C         140.0505  138.3446  158.3747 C.ar    1  UNL1       -0.0010
     10 C         140.9651  138.5380  159.5477 C.ar    1  UNL1       -0.0192
     11 C         142.3883  138.9578  159.3279 C.ar    1  UNL1        0.0358
     12 C         142.8969  139.1842  157.9350 C.ar    1  UNL1        0.1721
     13 C         142.8528  138.0469  154.5034 C.3     1  UNL1        0.2526
     14 O         142.4908  139.2171  155.3691 O.3     1  UNL1       -0.4684
     15 O         144.3200  139.6040  157.7152 O.3     1  UNL1       -0.4684
     16 C         144.6512  141.0520  157.5070 C.3     1  UNL1        0.2526
     17 C         138.9309  137.6325  165.1193 C.3     1  UNL1        0.0724
     18 C         138.3626  138.7766  165.9054 C.3     1  UNL1        0.0219
     19 C         139.2221  139.9612  166.2338 C.3     1  UNL1        0.0304
     20 C         140.2989  139.8420  167.2713 C.3     1  UNL1        0.0518
     21 C         141.1585  141.0266  167.5997 C.3     1  UNL1        0.2057
     22 O         140.9413  142.3304  166.8908 O.3     1  UNL1       -0.4758
     23 C         139.8644  142.4498  165.8533 C.ar    1  UNL1        0.1345
     24 C         139.6472  143.7536  165.1443 C.ar    1  UNL1        0.0366
     25 C         138.5705  143.8729  164.1069 C.ar    1  UNL1        0.0031
     26 C         137.7109  142.6883  163.7784 C.ar    1  UNL1       -0.0001
     27 C         137.9281  141.3844  164.4874 C.ar    1  UNL1       -0.0013
     28 C         139.0049  141.2652  165.5248 C.ar    1  UNL1        0.0116
@<TRIPOS>BOND
     1    13    14    1
     2    14     7    1
     3     7     8   ar
     4     8     9   ar
     5     9    10   ar
     6    10     1    1
     7     1     2    1
     8     2     3    1
     9     3     4    1
    10     4    17    1
    11    17    18    1
    12    18    19    1
    13    19    20    1
    14    20    21    1
    15    21    22    1
    16    22    23    1
    17    23    24   ar
    18    24    25   ar
    19    25    26   ar
    20    26    27   ar
    21    27    28   ar
    22     4     5    1
    23     5     6    1
    24    10    11   ar
    25    11    12   ar
    26    12    15    1
    27    15    16    1
    28    12     7   ar
    29     6     1    1
    30    28    19    1
    31    28    23   ar
@<TRIPOS>MOLECULE
*****
 28 31 0 0 0
SMALL
GASTEIGER

@<TRIPOS>ATOM
      1 C         143.1995  142.2166  161.3601 C.3     1  UNL1        0.0252
      2 C         143.8224  142.6909  162.6396 C.3     1  UNL1        0.0217
      3 C         144.4148  141.7002  163.5976 C.3     1  UNL1        0.0724
      4 N         144.3843  140.2354  163.2760 N.3     1  UNL1       -0.2726
      5 C         143.7613  139.7612  161.9966 C.3     1  UNL1        0.0724
      6 C         143.1689  140.7518  161.0386 C.3     1  UNL1        0.0217
      7 C         141.4223  145.1885  158.4861 C.ar    1  UNL1        0.1724
      8 C         142.5503  144.3027  158.0470 C.ar    1  UNL1        0.0397
      9 C         143.1427  143.3121  159.0050 C.ar    1  UNL1       -0.0010
     10 C         142.6071  143.2072  160.4021 C.ar    1  UNL1       -0.0192
     11 C         141.4790  144.0930  160.8413 C.ar    1  UNL1        0.0358
     12 C         140.8866  145.0836  159.8833 C.ar    1  UNL1        0.1721
     13 C         140.5449  145.7749  156.1121 C.3     1  UNL1        0.2526
     14 O         140.8299  146.1791  157.5282 O.3     1  UNL1       -0.4684
     15 O         139.7585  145.9694  160.3225 O.3     1  UNL1       -0.4684
     16 C         139.6079  146.3295  161.7708 C.3     1  UNL1        0.2526
     17 C         144.9767  139.2447  164.2340 C.3     1  UNL1        0.0724
     18 C         144.2081  138.8282  165.4529 C.3     1  UNL1        0.0219
     19 C         142.7084  138.8548  165.4394 C.3     1  UNL1        0.0304
     20 C         141.9453  137.7682  164.7416 C.3     1  UNL1        0.0518
     21 C         140.4456  137.7949  164.7281 C.3     1  UNL1        0.2057
     22 O         139.7090  138.9081  165.4122 O.3     1  UNL1       -0.4758
     23 C         140.4721  139.9948  166.1100 C.ar    1  UNL1        0.1345
     24 C         139.7356  141.1080  166.7942 C.ar    1  UNL1        0.0366
     25 C         140.4987  142.1947  167.4919 C.ar    1  UNL1        0.0031
     26 C         141.9984  142.1680  167.5054 C.ar    1  UNL1       -0.0001
     27 C         142.7350  141.0548  166.8213 C.ar    1  UNL1       -0.0013
     28 C         141.9718  139.9682  166.1236 C.ar    1  UNL1        0.0116
@<TRIPOS>BOND
     1    13    14    1
     2    14     7    1
     3     7     8   ar
     4     8     9   ar
     5     9    10   ar
     6    10     1    1
     7     1     2    1
     8     2     3    1
     9     3     4    1
    10     4    17    1
    11    17    18    1
    12    18    19    1
    13    19    20    1
    14    20    21    1
    15    21    22    1
    16    22    23    1
    17    23    24   ar
    18    24    25   ar
    19    25    26   ar
    20    26    27   ar
    21    27    28   ar
    22     4     5    1
    23     5     6    1
    24    10    11   ar
    25    11    12   ar
    26    12    15    1
    27    15    16    1
    28    12     7   ar
    29     6     1    1
    30    28    19    1
    31    28    23   ar
@<TRIPOS>MOLECULE
*****
 28 31 0 0 0
SMALL
GASTEIGER

@<TRIPOS>ATOM
      1 C         141.2157  138.5948  161.2334 C.3     1  UNL1        0.0252
      2 C         141.9800  138.5083  162.5213 C.3     1  UNL1        0.0217
      3 C         141.2703  138.1438  163.7915 C.3     1  UNL1        0.0724
      4 N         139.7963  137.8658  163.7739 N.3     1  UNL1       -0.2726
      5 C         139.0321  137.9523  162.4861 C.3     1  UNL1        0.0724
      6 C         139.7418  138.3168  161.2159 C.3     1  UNL1        0.0217
      7 C         143.3447  139.6882  157.4227 C.ar    1  UNL1        0.1724
      8 C         142.9710  140.7572  158.4063 C.ar    1  UNL1        0.0397
      9 C         142.2613  140.3927  159.6766 C.ar    1  UNL1       -0.0010
     10 C         141.9253  138.9593  159.9632 C.ar    1  UNL1       -0.0192
     11 C         142.2990  137.8902  158.9795 C.ar    1  UNL1        0.0358
     12 C         143.0087  138.2547  157.7093 C.ar    1  UNL1        0.1721
     13 C         145.3747  140.7623  156.2081 C.3     1  UNL1        0.2526
     14 O         144.0543  140.0527  156.1525 O.3     1  UNL1       -0.4684
     15 O         143.3823  137.1857  156.7257 O.3     1  UNL1       -0.4684
     16 C         143.0636  135.7501  157.0212 C.3     1  UNL1        0.2526
     17 C         139.0867  137.5013  165.0442 C.3     1  UNL1        0.0724
     18 C         138.3060  138.5411  165.7920 C.3     1  UNL1        0.0219
     19 C         138.9310  139.8688  166.1029 C.3     1  UNL1        0.0304
     20 C         139.8317  140.0132  167.2937 C.3     1  UNL1        0.0518
     21 C         140.4567  141.3409  167.6046 C.3     1  UNL1        0.2057
     22 O         140.1811  142.5241  166.7248 O.3     1  UNL1       -0.4758
     23 C         139.2804  142.3796  165.5340 C.ar    1  UNL1        0.1345
     24 C         139.0048  143.5628  164.6542 C.ar    1  UNL1        0.0366
     25 C         138.1041  143.4183  163.4634 C.ar    1  UNL1        0.0031
     26 C         137.4791  142.0907  163.1525 C.ar    1  UNL1       -0.0001
     27 C         137.7547  140.9075  164.0323 C.ar    1  UNL1       -0.0013
     28 C         138.6554  141.0520  165.2231 C.ar    1  UNL1        0.0116
@<TRIPOS>BOND
     1    13    14    1
     2    14     7    1
     3     7     8   ar
     4     8     9   ar
     5     9    10   ar
     6    10     1    1
     7     1     2    1
     8     2     3    1
     9     3     4    1
    10     4    17    1
    11    17    18    1
    12    18    19    1
    13    19    20    1
    14    20    21    1
    15    21    22    1
    16    22    23    1
    17    23    24   ar
    18    24    25   ar
    19    25    26   ar
    20    26    27   ar
    21    27    28   ar
    22     4     5    1
    23     5     6    1
    24    10    11   ar
    25    11    12   ar
    26    12    15    1
    27    15    16    1
    28    12     7   ar
    29     6     1    1
    30    28    19    1
    31    28    23   ar
