@<TRIPOS>MOLECULE
*****
 37 40 0 0 0
SMALL
GASTEIGER

@<TRIPOS>ATOM
      1 C         142.0559  142.4925  163.1438 C.ar    1  UNL1        0.2046
      2 N         141.4270  141.1539  163.3936 N.ar    1  UNL1       -0.1998
      3 C         141.6065  140.4766  164.7199 C.ar    1  UNL1        0.1389
      4 N         140.9776  139.1380  164.9697 N.pl3   1  UNL1       -0.3420
      5 C         142.4148  141.1381  165.7965 C.ar    1  UNL1        0.1169
      6 C         143.0437  142.4769  165.5466 C.ar    1  UNL1        0.2716
      7 O         143.8521  143.1384  166.6232 O.2     1  UNL1       -0.2663
      8 N         142.8643  143.1540  164.2203 N.ar    1  UNL1       -0.2662
      9 C         143.4932  144.4927  163.9705 C.3     1  UNL1        0.1363
     10 H         140.4470  138.7038  164.2632 H       1  UNL1        0.1437
     11 H         141.0954  138.6935  165.8403 H       1  UNL1        0.1437
     12 C         139.7286  146.8185  156.5953 C.3     1  UNL1        0.0029
     13 C         140.6126  145.8901  157.3740 C.3     1  UNL1        0.0340
     14 C         140.3949  145.4460  158.7903 C.3     1  UNL1        0.0042
     15 C         141.5174  144.5242  159.1648 C.3     1  UNL1        0.0190
     16 C         140.5185  144.7463  160.2615 C.3     1  UNL1        0.0229
     17 C         140.6980  144.0691  161.5878 C.3     1  UNL1        0.0936
     18 N         141.8764  143.1697  161.8174 N.pl3   1  UNL1       -0.2794
     19 C         142.8753  142.9477  160.7206 C.3     1  UNL1        0.0936
     20 C         142.6958  143.6249  159.3943 C.3     1  UNL1        0.0229
     21 C         142.4289  144.3985  157.9800 C.3     1  UNL1        0.0838
     22 N         143.6798  143.5735  157.9138 N.3     1  UNL1       -0.3200
     23 C         141.8697  145.2426  156.8734 C.3     1  UNL1        0.1749
     24 F         142.4634  145.4099  155.5061 F       1  UNL1       -0.2359
     25 H         143.8237  143.1018  158.8067 H       1  UNL1        0.1189
     26 H         144.4765  144.1792  157.7169 H       1  UNL1        0.1189
     27 S         142.5943  140.4610  167.1228 S.3     1  UNL1       -0.0780
     28 C         141.5257  140.5676  168.1700 C.ar    1  UNL1        0.0514
     29 C         140.1541  140.0237  167.9000 C.ar    1  UNL1        0.0095
     30 C         139.0854  140.1304  168.9472 C.ar    1  UNL1        0.0212
     31 C         139.3884  140.7808  170.2644 C.ar    1  UNL1        0.0988
     32 N         140.7601  141.3247  170.5345 N.ar    1  UNL1       -0.2394
     33 C         141.8287  141.2181  169.4873 C.ar    1  UNL1        0.1585
     34 C         143.2003  141.7619  169.7573 C.3     1  UNL1        0.4353
     35 F         144.5719  142.3057  170.0273 F       1  UNL1       -0.1644
     36 F         142.7562  143.1154  169.2873 F       1  UNL1       -0.1644
     37 F         143.6444  140.4084  170.2272 F       1  UNL1       -0.1644
@<TRIPOS>BOND
     1    13    12    1
     2    13    14    1
     3    14    15    1
     4    15    16    1
     5    16    17    1
     6    17    18    1
     7    18     1    1
     8     1     2   ar
     9     2     3   ar
    10     3     4    1
    11     3     5   ar
    12     5    27    1
    13    27    28    1
    14    28    29   ar
    15    29    30   ar
    16    30    31   ar
    17    31    32   ar
    18    32    33   ar
    19    33    34    1
    20    34    35    1
    21    34    36    1
    22    34    37    1
    23     5     6   ar
    24     6     7    2
    25     6     8   ar
    26     8     9    1
    27    18    19    1
    28    19    20    1
    29    15    21    1
    30    21    22    1
    31    21    23    1
    32    23    24    1
    33    23    13    1
    34    20    15    1
    35     8     1   ar
    36    33    28   ar
    37     4    10    1
    38     4    11    1
    39    22    25    1
    40    22    26    1
@<TRIPOS>MOLECULE
*****
 37 40 0 0 0
SMALL
GASTEIGER

@<TRIPOS>ATOM
      1 C         140.0203  143.6668  159.4408 C.ar    1  UNL1        0.2046
      2 N         139.8181  144.8804  160.2988 N.ar    1  UNL1       -0.1998
      3 C         140.6332  145.0623  161.5449 C.ar    1  UNL1        0.1389
      4 N         140.4310  146.2759  162.4029 N.pl3   1  UNL1       -0.3420
      5 C         141.6504  144.0304  161.9329 C.ar    1  UNL1        0.1169
      6 C         141.8526  142.8168  161.0748 C.ar    1  UNL1        0.2716
      7 O         142.8698  141.7849  161.4628 O.2     1  UNL1       -0.2663
      8 N         141.0375  142.6350  159.8288 N.ar    1  UNL1       -0.2662
      9 C         141.2397  141.4213  158.9707 C.3     1  UNL1        0.1363
     10 H         139.7633  146.9531  162.1483 H       1  UNL1        0.1437
     11 H         140.9659  146.3952  163.2207 H       1  UNL1        0.1437
     12 C         134.7586  141.5643  153.5326 C.3     1  UNL1        0.0029
     13 C         135.9058  142.3220  154.1325 C.3     1  UNL1        0.0340
     14 C         136.4246  142.1739  155.5322 C.3     1  UNL1        0.0042
     15 C         137.5750  143.1213  155.7028 C.3     1  UNL1        0.0190
     16 C         137.2639  142.3125  156.9271 C.3     1  UNL1        0.0229
     17 C         138.0790  142.4944  158.1731 C.3     1  UNL1        0.0936
     18 N         139.2052  143.4850  158.1947 N.pl3   1  UNL1       -0.2794
     19 C         139.5163  144.2937  156.9704 C.3     1  UNL1        0.0936
     20 C         138.7012  144.1118  155.7244 C.3     1  UNL1        0.0229
     21 C         137.7672  143.8548  154.4085 C.3     1  UNL1        0.0838
     22 N         138.8083  144.8990  154.1331 N.3     1  UNL1       -0.3200
     23 C         136.7357  143.3609  153.4380 C.3     1  UNL1        0.1749
     24 F         136.5640  143.8243  152.0219 F       1  UNL1       -0.2359
     25 H         139.3769  145.0407  154.9681 H       1  UNL1        0.1189
     26 H         138.3522  145.7754  153.8796 H       1  UNL1        0.1189
     27 S         142.4655  144.2122  163.1789 S.3     1  UNL1       -0.0780
     28 C         142.0186  143.5841  164.4657 C.ar    1  UNL1        0.0514
     29 C         140.6013  143.7491  164.9283 C.ar    1  UNL1        0.0095
     30 C         140.1545  143.1209  166.2151 C.ar    1  UNL1        0.0212
     31 C         141.1250  142.3278  167.0392 C.ar    1  UNL1        0.0988
     32 N         142.5423  142.1629  166.5766 N.ar    1  UNL1       -0.2394
     33 C         142.9891  142.7910  165.2898 C.ar    1  UNL1        0.1585
     34 C         144.4064  142.6260  164.8272 C.3     1  UNL1        0.4353
     35 F         145.8237  142.4610  164.3645 F       1  UNL1       -0.1644
     36 F         144.7695  143.9295  165.4745 F       1  UNL1       -0.1644
     37 F         144.0434  141.3225  164.1798 F       1  UNL1       -0.1644
@<TRIPOS>BOND
     1    13    12    1
     2    13    14    1
     3    14    15    1
     4    15    16    1
     5    16    17    1
     6    17    18    1
     7    18     1    1
     8     1     2   ar
     9     2     3   ar
    10     3     4    1
    11     3     5   ar
    12     5    27    1
    13    27    28    1
    14    28    29   ar
    15    29    30   ar
    16    30    31   ar
    17    31    32   ar
    18    32    33   ar
    19    33    34    1
    20    34    35    1
    21    34    36    1
    22    34    37    1
    23     5     6   ar
    24     6     7    2
    25     6     8   ar
    26     8     9    1
    27    18    19    1
    28    19    20    1
    29    15    21    1
    30    21    22    1
    31    21    23    1
    32    23    24    1
    33    23    13    1
    34    20    15    1
    35     8     1   ar
    36    33    28   ar
    37     4    10    1
    38     4    11    1
    39    22    25    1
    40    22    26    1
@<TRIPOS>MOLECULE
*****
 37 40 0 0 0
SMALL
GASTEIGER

@<TRIPOS>ATOM
      1 C         141.8890  139.8234  162.7313 C.ar    1  UNL1        0.2046
      2 N         142.4979  138.8616  163.7081 N.ar    1  UNL1       -0.1998
      3 C         142.7344  139.2837  165.1280 C.ar    1  UNL1        0.1389
      4 N         143.3434  138.3219  166.1048 N.pl3   1  UNL1       -0.3420
      5 C         142.3620  140.6675  165.5710 C.ar    1  UNL1        0.1169
      6 C         141.7531  141.6293  164.5941 C.ar    1  UNL1        0.2716
      7 O         141.3807  143.0132  165.0371 O.2     1  UNL1       -0.2663
      8 N         141.5166  141.2072  163.1743 N.ar    1  UNL1       -0.2662
      9 C         140.9076  142.1690  162.1975 C.3     1  UNL1        0.1363
     10 H         143.5878  137.4137  165.8141 H       1  UNL1        0.1437
     11 H         143.4986  138.5989  167.0367 H       1  UNL1        0.1437
     12 C         139.0756  137.2037  155.5040 C.3     1  UNL1        0.0029
     13 C         140.1036  137.7410  156.4550 C.3     1  UNL1        0.0340
     14 C         139.8887  138.0395  157.9093 C.3     1  UNL1        0.0042
     15 C         141.1793  138.5572  158.4719 C.3     1  UNL1        0.0190
     16 C         140.0650  138.4796  159.4729 C.3     1  UNL1        0.0229
     17 C         140.3015  138.9016  160.8927 C.3     1  UNL1        0.0936
     18 N         141.6524  139.4013  161.3115 N.pl3   1  UNL1       -0.2794
     19 C         142.7668  139.4789  160.3104 C.3     1  UNL1        0.0936
     20 C         142.5302  139.0569  158.8906 C.3     1  UNL1        0.0229
     21 C         142.1918  138.5787  157.3652 C.3     1  UNL1        0.0838
     22 N         143.6185  139.0262  157.4843 N.3     1  UNL1       -0.3200
     23 C         141.5270  138.0743  156.1188 C.3     1  UNL1        0.1749
     24 F         142.1722  137.9288  154.7726 F       1  UNL1       -0.2359
     25 H         143.8041  139.3189  158.4436 H       1  UNL1        0.1189
     26 H         143.7831  139.8094  156.8519 H       1  UNL1        0.1189
     27 S         142.5985  141.0896  166.9908 S.3     1  UNL1       -0.0780
     28 C         141.5302  140.8816  168.0229 C.ar    1  UNL1        0.0514
     29 C         140.2379  140.2219  167.6423 C.ar    1  UNL1        0.0095
     30 C         139.1695  140.0139  168.6745 C.ar    1  UNL1        0.0212
     31 C         139.3935  140.4655  170.0873 C.ar    1  UNL1        0.0988
     32 N         140.6858  141.1251  170.4679 N.ar    1  UNL1       -0.2394
     33 C         141.7541  141.3332  169.4358 C.ar    1  UNL1        0.1585
     34 C         143.0464  141.9928  169.8164 C.3     1  UNL1        0.4353
     35 F         144.3387  142.6525  170.1970 F       1  UNL1       -0.1644
     36 F         142.4527  143.3349  169.5061 F       1  UNL1       -0.1644
     37 F         143.6401  140.6507  170.1267 F       1  UNL1       -0.1644
@<TRIPOS>BOND
     1    13    12    1
     2    13    14    1
     3    14    15    1
     4    15    16    1
     5    16    17    1
     6    17    18    1
     7    18     1    1
     8     1     2   ar
     9     2     3   ar
    10     3     4    1
    11     3     5   ar
    12     5    27    1
    13    27    28    1
    14    28    29   ar
    15    29    30   ar
    16    30    31   ar
    17    31    32   ar
    18    32    33   ar
    19    33    34    1
    20    34    35    1
    21    34    36    1
    22    34    37    1
    23     5     6   ar
    24     6     7    2
    25     6     8   ar
    26     8     9    1
    27    18    19    1
    28    19    20    1
    29    15    21    1
    30    21    22    1
    31    21    23    1
    32    23    24    1
    33    23    13    1
    34    20    15    1
    35     8     1   ar
    36    33    28   ar
    37     4    10    1
    38     4    11    1
    39    22    25    1
    40    22    26    1
@<TRIPOS>MOLECULE
*****
 37 40 0 0 0
SMALL
GASTEIGER

@<TRIPOS>ATOM
      1 C         140.7367  142.6402  163.8472 C.ar    1  UNL1        0.2046
      2 N         141.8340  143.3231  163.0860 N.ar    1  UNL1       -0.1998
      3 C         141.5543  143.9161  161.7368 C.ar    1  UNL1        0.1389
      4 N         142.6516  144.5990  160.9756 N.pl3   1  UNL1       -0.3420
      5 C         140.1773  143.8262  161.1489 C.ar    1  UNL1        0.1169
      6 C         139.0799  143.1432  161.9102 C.ar    1  UNL1        0.2716
      7 O         137.7028  143.0533  161.3223 O.2     1  UNL1       -0.2663
      8 N         139.3596  142.5502  163.2593 N.ar    1  UNL1       -0.2662
      9 C         138.2623  141.8672  164.0206 C.3     1  UNL1        0.1363
     10 H         143.5554  144.6581  161.3615 H       1  UNL1        0.1437
     11 H         142.4680  144.9883  160.0902 H       1  UNL1        0.1437
     12 C         142.9096  138.1664  170.3492 C.3     1  UNL1        0.0029
     13 C         142.3175  139.3498  169.6429 C.3     1  UNL1        0.0340
     14 C         142.2438  139.5439  168.1573 C.3     1  UNL1        0.0042
     15 C         141.5759  140.8610  167.8944 C.3     1  UNL1        0.0190
     16 C         141.9750  140.1208  166.6524 C.3     1  UNL1        0.0229
     17 C         141.6953  140.7138  165.3034 C.3     1  UNL1        0.0936
     18 N         141.0164  142.0471  165.1963 N.pl3   1  UNL1       -0.2794
     19 C         140.6173  142.7874  166.4383 C.3     1  UNL1        0.0936
     20 C         140.8970  142.1943  167.7874 C.3     1  UNL1        0.0229
     21 C         141.2368  141.4810  169.2177 C.3     1  UNL1        0.0838
     22 N         140.5585  142.8028  169.4239 N.3     1  UNL1       -0.3200
     23 C         141.6951  140.5470  170.2982 C.3     1  UNL1        0.1749
     24 F         141.5556  140.7710  171.7748 F       1  UNL1       -0.2359
     25 H         140.3575  143.2268  168.5183 H       1  UNL1        0.1189
     26 H         141.1700  143.4189  169.9595 H       1  UNL1        0.1189
     27 S         139.8975  144.4192  159.7999 S.3     1  UNL1       -0.0780
     28 C         140.0102  143.5692  158.5691 C.ar    1  UNL1        0.0514
     29 C         139.2106  142.3053  158.4547 C.ar    1  UNL1        0.0095
     30 C         139.3233  141.4553  157.2238 C.ar    1  UNL1        0.0212
     31 C         140.2356  141.8694  156.1074 C.ar    1  UNL1        0.0988
     32 N         141.0351  143.1333  156.2218 N.ar    1  UNL1       -0.2394
     33 C         140.9225  143.9832  157.4526 C.ar    1  UNL1        0.1585
     34 C         141.7220  145.2472  157.5670 C.3     1  UNL1        0.4353
     35 F         142.5216  146.5112  157.6814 F       1  UNL1       -0.1644
     36 F         140.5201  146.0448  157.1555 F       1  UNL1       -0.1644
     37 F         142.9239  144.4496  157.9785 F       1  UNL1       -0.1644
@<TRIPOS>BOND
     1    13    12    1
     2    13    14    1
     3    14    15    1
     4    15    16    1
     5    16    17    1
     6    17    18    1
     7    18     1    1
     8     1     2   ar
     9     2     3   ar
    10     3     4    1
    11     3     5   ar
    12     5    27    1
    13    27    28    1
    14    28    29   ar
    15    29    30   ar
    16    30    31   ar
    17    31    32   ar
    18    32    33   ar
    19    33    34    1
    20    34    35    1
    21    34    36    1
    22    34    37    1
    23     5     6   ar
    24     6     7    2
    25     6     8   ar
    26     8     9    1
    27    18    19    1
    28    19    20    1
    29    15    21    1
    30    21    22    1
    31    21    23    1
    32    23    24    1
    33    23    13    1
    34    20    15    1
    35     8     1   ar
    36    33    28   ar
    37     4    10    1
    38     4    11    1
    39    22    25    1
    40    22    26    1
@<TRIPOS>MOLECULE
*****
 37 40 0 0 0
SMALL
GASTEIGER

@<TRIPOS>ATOM
      1 C         142.8476  141.9520  161.4833 C.ar    1  UNL1        0.2046
      2 N         141.5833  142.7524  161.5864 N.ar    1  UNL1       -0.1998
      3 C         140.9585  142.9984  162.9278 C.ar    1  UNL1        0.1389
      4 N         139.6941  143.7988  163.0308 N.pl3   1  UNL1       -0.3420
      5 C         141.5981  142.4439  164.1661 C.ar    1  UNL1        0.1169
      6 C         142.8626  141.6434  164.0630 C.ar    1  UNL1        0.2716
      7 O         143.5022  141.0890  165.3013 O.2     1  UNL1       -0.2663
      8 N         143.4873  141.3975  162.7216 N.ar    1  UNL1       -0.2662
      9 C         144.7517  140.5971  162.6186 C.3     1  UNL1        0.1363
     10 H         139.2743  144.1627  162.2180 H       1  UNL1        0.1437
     11 H         139.2841  143.9602  163.9112 H       1  UNL1        0.1437
     12 C         145.1434  139.4115  154.0478 C.3     1  UNL1        0.0029
     13 C         145.2028  140.2724  155.2746 C.3     1  UNL1        0.0340
     14 C         144.3116  140.1583  156.4759 C.3     1  UNL1        0.0042
     15 C         144.7219  141.2141  157.4593 C.3     1  UNL1        0.0190
     16 C         143.5773  140.3617  157.9212 C.3     1  UNL1        0.0229
     17 C         142.9526  140.6077  159.2625 C.3     1  UNL1        0.0936
     18 N         143.4724  141.7060  160.1420 N.pl3   1  UNL1       -0.2794
     19 C         144.6170  142.5584  159.6801 C.3     1  UNL1        0.0936
     20 C         145.2417  142.3124  158.3388 C.3     1  UNL1        0.0229
     21 C         145.8666  141.9807  156.8659 C.3     1  UNL1        0.0838
     22 N         146.5874  143.1278  157.5097 N.3     1  UNL1       -0.3200
     23 C         146.1638  141.3987  155.5157 C.3     1  UNL1        0.1749
     24 F         147.2340  141.8617  154.5723 F       1  UNL1       -0.2359
     25 H         146.1795  143.3146  158.4257 H       1  UNL1        0.1189
     26 H         146.4992  143.9572  156.9226 H       1  UNL1        0.1189
     27 S         140.9734  142.6898  165.5074 S.3     1  UNL1       -0.0780
     28 C         140.1940  141.6006  166.1827 C.ar    1  UNL1        0.0514
     29 C         139.2756  140.7274  165.3803 C.ar    1  UNL1        0.0095
     30 C         138.4962  139.6381  166.0557 C.ar    1  UNL1        0.0212
     31 C         138.6353  139.4222  167.5335 C.ar    1  UNL1        0.0988
     32 N         139.5537  140.2954  168.3360 N.ar    1  UNL1       -0.2394
     33 C         140.3331  141.3846  167.6606 C.ar    1  UNL1        0.1585
     34 C         141.2516  142.2578  168.4631 C.3     1  UNL1        0.4353
     35 F         142.1700  143.1310  169.2655 F       1  UNL1       -0.1644
     36 F         142.3682  141.2792  168.2498 F       1  UNL1       -0.1644
     37 F         140.1349  143.2363  168.6763 F       1  UNL1       -0.1644
@<TRIPOS>BOND
     1    13    12    1
     2    13    14    1
     3    14    15    1
     4    15    16    1
     5    16    17    1
     6    17    18    1
     7    18     1    1
     8     1     2   ar
     9     2     3   ar
    10     3     4    1
    11     3     5   ar
    12     5    27    1
    13    27    28    1
    14    28    29   ar
    15    29    30   ar
    16    30    31   ar
    17    31    32   ar
    18    32    33   ar
    19    33    34    1
    20    34    35    1
    21    34    36    1
    22    34    37    1
    23     5     6   ar
    24     6     7    2
    25     6     8   ar
    26     8     9    1
    27    18    19    1
    28    19    20    1
    29    15    21    1
    30    21    22    1
    31    21    23    1
    32    23    24    1
    33    23    13    1
    34    20    15    1
    35     8     1   ar
    36    33    28   ar
    37     4    10    1
    38     4    11    1
    39    22    25    1
    40    22    26    1
@<TRIPOS>MOLECULE
*****
 37 40 0 0 0
SMALL
GASTEIGER

@<TRIPOS>ATOM
      1 C         140.7097  139.7183  162.6488 C.ar    1  UNL1        0.2046
      2 N         141.7722  138.7167  162.3057 N.ar    1  UNL1       -0.1998
      3 C         141.9104  138.2228  160.8961 C.ar    1  UNL1        0.1389
      4 N         142.9729  137.2212  160.5530 N.pl3   1  UNL1       -0.3420
      5 C         140.9860  138.7307  159.8295 C.ar    1  UNL1        0.1169
      6 C         139.9234  139.7324  160.1726 C.ar    1  UNL1        0.2716
      7 O         138.9990  140.2402  159.1060 O.2     1  UNL1       -0.2663
      8 N         139.7852  140.2261  161.5822 N.ar    1  UNL1       -0.2662
      9 C         138.7227  141.2278  161.9253 C.3     1  UNL1        0.1363
     10 H         143.5796  136.8879  161.2531 H       1  UNL1        0.1437
     11 H         143.0636  136.8971  159.6278 H       1  UNL1        0.1437
     12 C         140.8577  143.6768  169.8126 C.3     1  UNL1        0.0029
     13 C         140.4902  142.5654  168.8747 C.3     1  UNL1        0.0340
     14 C         140.8736  142.4700  167.4275 C.3     1  UNL1        0.0042
     15 C         140.2952  141.1999  166.8776 C.3     1  UNL1        0.0190
     16 C         141.0703  142.0018  165.8746 C.3     1  UNL1        0.0229
     17 C         141.2085  141.5079  164.4650 C.3     1  UNL1        0.0936
     18 N         140.5715  140.2122  164.0584 N.pl3   1  UNL1       -0.2794
     19 C         139.7964  139.4103  165.0615 C.3     1  UNL1        0.0936
     20 C         139.6582  139.9041  166.4710 C.3     1  UNL1        0.0229
     21 C         139.5544  140.5104  167.9849 C.3     1  UNL1        0.0838
     22 N         138.8217  139.2060  167.8767 N.3     1  UNL1       -0.3200
     23 C         139.6749  141.3543  169.2191 C.3     1  UNL1        0.1749
     24 F         139.0840  141.0420  170.5618 F       1  UNL1       -0.2359
     25 H         138.9014  138.8492  166.9245 H       1  UNL1        0.1189
     26 H         137.8379  139.3487  168.1051 H       1  UNL1        0.1189
     27 S         141.1241  138.2369  158.4199 S.3     1  UNL1       -0.0780
     28 C         142.2961  138.6642  157.5870 C.ar    1  UNL1        0.0514
     29 C         142.8552  140.0484  157.7332 C.ar    1  UNL1        0.0095
     30 C         144.0272  140.4758  156.9003 C.ar    1  UNL1        0.0212
     31 C         144.6401  139.5189  155.9211 C.ar    1  UNL1        0.0988
     32 N         144.0810  138.1347  155.7749 N.ar    1  UNL1       -0.2394
     33 C         142.9090  137.7074  156.6078 C.ar    1  UNL1        0.1585
     34 C         142.3500  136.3232  156.4616 C.3     1  UNL1        0.4353
     35 F         141.7909  134.9389  156.3153 F       1  UNL1       -0.1644
     36 F         141.4295  136.8090  155.3815 F       1  UNL1       -0.1644
     37 F         143.2705  135.8373  157.5417 F       1  UNL1       -0.1644
@<TRIPOS>BOND
     1    13    12    1
     2    13    14    1
     3    14    15    1
     4    15    16    1
     5    16    17    1
     6    17    18    1
     7    18     1    1
     8     1     2   ar
     9     2     3   ar
    10     3     4    1
    11     3     5   ar
    12     5    27    1
    13    27    28    1
    14    28    29   ar
    15    29    30   ar
    16    30    31   ar
    17    31    32   ar
    18    32    33   ar
    19    33    34    1
    20    34    35    1
    21    34    36    1
    22    34    37    1
    23     5     6   ar
    24     6     7    2
    25     6     8   ar
    26     8     9    1
    27    18    19    1
    28    19    20    1
    29    15    21    1
    30    21    22    1
    31    21    23    1
    32    23    24    1
    33    23    13    1
    34    20    15    1
    35     8     1   ar
    36    33    28   ar
    37     4    10    1
    38     4    11    1
    39    22    25    1
    40    22    26    1
@<TRIPOS>MOLECULE
*****
 37 40 0 0 0
SMALL
GASTEIGER

@<TRIPOS>ATOM
      1 C         140.8661  139.8966  163.2387 C.ar    1  UNL1        0.2046
      2 N         141.6358  141.0967  163.7048 N.ar    1  UNL1       -0.1998
      3 C         141.4441  141.6156  165.0991 C.ar    1  UNL1        0.1389
      4 N         142.2138  142.8157  165.5652 N.pl3   1  UNL1       -0.3420
      5 C         140.4826  140.9344  166.0272 C.ar    1  UNL1        0.1169
      6 C         139.7129  139.7342  165.5611 C.ar    1  UNL1        0.2716
      7 O         138.7514  139.0530  166.4892 O.2     1  UNL1       -0.2663
      8 N         139.9046  139.2154  164.1668 N.ar    1  UNL1       -0.2662
      9 C         139.1349  138.0152  163.7007 C.3     1  UNL1        0.1363
     10 H         142.8448  143.2628  164.9560 H       1  UNL1        0.1437
     11 H         142.0879  143.1563  166.4803 H       1  UNL1        0.1437
     12 C         143.3571  136.5387  156.2008 C.3     1  UNL1        0.0029
     13 C         142.4101  137.2735  157.1026 C.3     1  UNL1        0.0340
     14 C         142.6440  137.6014  158.5476 C.3     1  UNL1        0.0042
     15 C         141.4414  138.3399  159.0559 C.3     1  UNL1        0.0190
     16 C         142.5122  138.1353  160.0862 C.3     1  UNL1        0.0229
     17 C         142.3204  138.6542  161.4804 C.3     1  UNL1        0.0936
     18 N         141.0578  139.3777  161.8444 N.pl3   1  UNL1       -0.2794
     19 C         139.9870  139.5823  160.8141 C.3     1  UNL1        0.0936
     20 C         140.1788  139.0634  159.4199 C.3     1  UNL1        0.0229
     21 C         140.4642  138.4684  157.9251 C.3     1  UNL1        0.0838
     22 N         139.1237  139.1383  157.9901 N.3     1  UNL1       -0.3200
     23 C         141.0629  137.8093  156.7179 C.3     1  UNL1        0.1749
     24 F         140.4262  137.7044  155.3639 F       1  UNL1       -0.2359
     25 H         138.9699  139.5004  158.9312 H       1  UNL1        0.1189
     26 H         138.3945  138.4625  157.7624 H       1  UNL1        0.1189
     27 S         140.2908  141.4532  167.4215 S.3     1  UNL1       -0.0780
     28 C         141.1295  140.9166  168.5433 C.ar    1  UNL1        0.0514
     29 C         141.8512  139.6115  168.3824 C.ar    1  UNL1        0.0095
     30 C         142.6900  139.0750  169.5043 C.ar    1  UNL1        0.0212
     31 C         142.8069  139.8434  170.7872 C.ar    1  UNL1        0.0988
     32 N         142.0852  141.1485  170.9481 N.ar    1  UNL1       -0.2394
     33 C         141.2465  141.6851  169.8263 C.ar    1  UNL1        0.1585
     34 C         140.5248  142.9902  169.9872 C.3     1  UNL1        0.4353
     35 F         139.8031  144.2953  170.1482 F       1  UNL1       -0.1644
     36 F         139.2694  142.2517  170.3457 F       1  UNL1       -0.1644
     37 F         141.7803  143.7287  169.6288 F       1  UNL1       -0.1644
@<TRIPOS>BOND
     1    13    12    1
     2    13    14    1
     3    14    15    1
     4    15    16    1
     5    16    17    1
     6    17    18    1
     7    18     1    1
     8     1     2   ar
     9     2     3   ar
    10     3     4    1
    11     3     5   ar
    12     5    27    1
    13    27    28    1
    14    28    29   ar
    15    29    30   ar
    16    30    31   ar
    17    31    32   ar
    18    32    33   ar
    19    33    34    1
    20    34    35    1
    21    34    36    1
    22    34    37    1
    23     5     6   ar
    24     6     7    2
    25     6     8   ar
    26     8     9    1
    27    18    19    1
    28    19    20    1
    29    15    21    1
    30    21    22    1
    31    21    23    1
    32    23    24    1
    33    23    13    1
    34    20    15    1
    35     8     1   ar
    36    33    28   ar
    37     4    10    1
    38     4    11    1
    39    22    25    1
    40    22    26    1
@<TRIPOS>MOLECULE
*****
 37 40 0 0 0
SMALL
GASTEIGER

@<TRIPOS>ATOM
      1 C         143.1035  141.9609  161.4697 C.ar    1  UNL1        0.2046
      2 N         143.0254  143.1857  160.6073 N.ar    1  UNL1       -0.1998
      3 C         143.2847  143.0829  159.1334 C.ar    1  UNL1        0.1389
      4 N         143.2066  144.3076  158.2709 N.pl3   1  UNL1       -0.3420
      5 C         143.6220  141.7553  158.5220 C.ar    1  UNL1        0.1169
      6 C         143.7001  140.5305  159.3846 C.ar    1  UNL1        0.2716
      7 O         144.0374  139.2029  158.7733 O.2     1  UNL1       -0.2663
      8 N         143.4409  140.6334  160.8584 N.ar    1  UNL1       -0.2662
      9 C         143.5190  139.4086  161.7210 C.3     1  UNL1        0.1363
     10 H         142.9852  145.1789  158.6722 H       1  UNL1        0.1437
     11 H         143.3767  144.2401  157.3036 H       1  UNL1        0.1437
     12 C         143.3225  142.4494  169.6383 C.3     1  UNL1        0.0029
     13 C         142.6648  142.3994  168.2911 C.3     1  UNL1        0.0340
     14 C         143.3674  142.2841  166.9708 C.3     1  UNL1        0.0042
     15 C         142.3259  142.2694  165.8913 C.3     1  UNL1        0.0190
     16 C         143.7334  142.1691  165.3825 C.3     1  UNL1        0.0229
     17 C         143.9926  142.0663  163.9087 C.3     1  UNL1        0.0936
     18 N         142.8443  142.0638  162.9436 N.pl3   1  UNL1       -0.2794
     19 C         141.4368  142.1640  163.4524 C.3     1  UNL1        0.0936
     20 C         141.1776  142.2668  164.9262 C.3     1  UNL1        0.0229
     21 C         140.9797  142.3755  166.5445 C.3     1  UNL1        0.0838
     22 N         139.6565  142.3974  165.8385 N.3     1  UNL1       -0.3200
     23 C         141.1892  142.4558  168.0277 C.3     1  UNL1        0.1749
     24 F         140.1122  142.5722  169.0651 F       1  UNL1       -0.2359
     25 H         139.8070  142.3285  164.8320 H       1  UNL1        0.1189
     26 H         139.1722  143.2696  166.0509 H       1  UNL1        0.1189
     27 S         143.8812  141.6524  157.0482 S.3     1  UNL1       -0.0780
     28 C         145.2871  141.7083  156.5283 C.ar    1  UNL1        0.0514
     29 C         146.3233  142.5153  157.2531 C.ar    1  UNL1        0.0095
     30 C         147.7292  142.5712  156.7332 C.ar    1  UNL1        0.0212
     31 C         148.0990  141.8201  155.4885 C.ar    1  UNL1        0.0988
     32 N         147.0628  141.0132  154.7638 N.ar    1  UNL1       -0.2394
     33 C         145.6570  140.9573  155.2836 C.ar    1  UNL1        0.1585
     34 C         144.6208  140.1503  154.5589 C.3     1  UNL1        0.4353
     35 F         143.5847  139.3434  153.8341 F       1  UNL1       -0.1644
     36 F         144.2089  141.3703  153.7894 F       1  UNL1       -0.1644
     37 F         145.0327  138.9304  155.3283 F       1  UNL1       -0.1644
@<TRIPOS>BOND
     1    13    12    1
     2    13    14    1
     3    14    15    1
     4    15    16    1
     5    16    17    1
     6    17    18    1
     7    18     1    1
     8     1     2   ar
     9     2     3   ar
    10     3     4    1
    11     3     5   ar
    12     5    27    1
    13    27    28    1
    14    28    29   ar
    15    29    30   ar
    16    30    31   ar
    17    31    32   ar
    18    32    33   ar
    19    33    34    1
    20    34    35    1
    21    34    36    1
    22    34    37    1
    23     5     6   ar
    24     6     7    2
    25     6     8   ar
    26     8     9    1
    27    18    19    1
    28    19    20    1
    29    15    21    1
    30    21    22    1
    31    21    23    1
    32    23    24    1
    33    23    13    1
    34    20    15    1
    35     8     1   ar
    36    33    28   ar
    37     4    10    1
    38     4    11    1
    39    22    25    1
    40    22    26    1
@<TRIPOS>MOLECULE
*****
 37 40 0 0 0
SMALL
GASTEIGER

@<TRIPOS>ATOM
      1 C         142.8615  141.9511  161.4915 C.ar    1  UNL1        0.2046
      2 N         141.5641  142.6999  161.5670 N.ar    1  UNL1       -0.1998
      3 C         140.9173  142.9477  162.8976 C.ar    1  UNL1        0.1389
      4 N         139.6199  143.6965  162.9731 N.pl3   1  UNL1       -0.3420
      5 C         141.5682  142.4465  164.1527 C.ar    1  UNL1        0.1169
      6 C         142.8657  141.6976  164.0772 C.ar    1  UNL1        0.2716
      7 O         143.5165  141.1965  165.3323 O.2     1  UNL1       -0.2663
      8 N         143.5123  141.4499  162.7466 N.ar    1  UNL1       -0.2662
      9 C         144.8099  140.7010  162.6711 C.3     1  UNL1        0.1363
     10 H         139.1927  144.0255  162.1493 H       1  UNL1        0.1437
     11 H         139.1954  143.8591  163.8464 H       1  UNL1        0.1437
     12 C         147.1779  142.0051  154.5360 C.3     1  UNL1        0.0029
     13 C         146.1912  141.4605  155.5259 C.3     1  UNL1        0.0340
     14 C         145.8198  142.0878  156.8369 C.3     1  UNL1        0.0042
     15 C         144.8017  141.2080  157.4998 C.3     1  UNL1        0.0190
     16 C         145.1612  142.4295  158.2927 C.3     1  UNL1        0.0229
     17 C         144.5145  142.6771  159.6232 C.3     1  UNL1        0.0936
     18 N         143.5083  141.7033  160.1609 N.pl3   1  UNL1       -0.2794
     19 C         143.1487  140.4819  159.3681 C.3     1  UNL1        0.0936
     20 C         143.7954  140.2342  158.0375 C.3     1  UNL1        0.0229
     21 C         144.5438  140.0369  156.5985 C.3     1  UNL1        0.0838
     22 N         143.5940  138.9081  156.8696 N.3     1  UNL1       -0.3200
     23 C         145.4026  140.1930  155.3786 C.3     1  UNL1        0.1749
     24 F         145.4622  139.2477  154.2156 F       1  UNL1       -0.2359
     25 H         143.1407  139.0544  157.7715 H       1  UNL1        0.1189
     26 H         144.1085  138.0275  156.8865 H       1  UNL1        0.1189
     27 S         140.9215  142.6942  165.4833 S.3     1  UNL1       -0.0780
     28 C         140.1644  141.5937  166.1656 C.ar    1  UNL1        0.0514
     29 C         139.2665  140.6948  165.3683 C.ar    1  UNL1        0.0095
     30 C         138.5094  139.5943  166.0508 C.ar    1  UNL1        0.0212
     31 C         138.6503  139.3927  167.5305 C.ar    1  UNL1        0.0988
     32 N         139.5482  140.2916  168.3278 N.ar    1  UNL1       -0.2394
     33 C         140.3053  141.3921  167.6454 C.ar    1  UNL1        0.1585
     34 C         141.2032  142.2910  168.4427 C.3     1  UNL1        0.4353
     35 F         142.1012  143.1899  169.2400 F       1  UNL1       -0.1644
     36 F         142.3327  141.3200  168.2653 F       1  UNL1       -0.1644
     37 F         140.0737  143.2620  168.6200 F       1  UNL1       -0.1644
@<TRIPOS>BOND
     1    13    12    1
     2    13    14    1
     3    14    15    1
     4    15    16    1
     5    16    17    1
     6    17    18    1
     7    18     1    1
     8     1     2   ar
     9     2     3   ar
    10     3     4    1
    11     3     5   ar
    12     5    27    1
    13    27    28    1
    14    28    29   ar
    15    29    30   ar
    16    30    31   ar
    17    31    32   ar
    18    32    33   ar
    19    33    34    1
    20    34    35    1
    21    34    36    1
    22    34    37    1
    23     5     6   ar
    24     6     7    2
    25     6     8   ar
    26     8     9    1
    27    18    19    1
    28    19    20    1
    29    15    21    1
    30    21    22    1
    31    21    23    1
    32    23    24    1
    33    23    13    1
    34    20    15    1
    35     8     1   ar
    36    33    28   ar
    37     4    10    1
    38     4    11    1
    39    22    25    1
    40    22    26    1
