@<TRIPOS>MOLECULE
*****
 27 29 0 0 0
SMALL
GASTEIGER

@<TRIPOS>ATOM
      1 C         141.5162  144.8159  161.0454 C.3     1  UNL1        0.0964
      2 C         141.6777  144.9993  159.5655 C.3     1  UNL1        0.0901
      3 N         142.5818  143.9143  159.0599 N.3     1  UNL1       -0.2700
      4 C         143.0130  143.7178  157.6367 C.3     1  UNL1        0.0897
      5 C         142.9789  143.0604  160.2274 C.3     1  UNL1        0.0780
      6 C         142.3203  143.6176  161.4545 C.3     1  UNL1        0.0557
      7 C         142.4442  143.0722  162.8464 C.ar    1  UNL1       -0.0197
      8 C         141.5499  141.9553  163.2966 C.ar    1  UNL1       -0.0042
      9 C         141.6738  141.4100  164.6885 C.ar    1  UNL1       -0.0003
     10 C         142.6920  141.9816  165.6301 C.ar    1  UNL1        0.0015
     11 C         143.5862  143.0985  165.1799 C.ar    1  UNL1       -0.0003
     12 C         143.4623  143.6438  163.7881 C.ar    1  UNL1       -0.0042
     13 C         142.8158  141.4362  167.0220 C.ar    1  UNL1        0.0193
     14 C         143.1161  142.3595  168.1653 C.ar    1  UNL1        0.0055
     15 C         143.2400  141.8141  169.5572 C.ar    1  UNL1        0.0497
     16 C         143.0635  140.3454  169.8057 C.ar    1  UNL1        0.2223
     17 F         143.1874  139.8000  171.1975 F       1  UNL1       -0.1832
     18 N         142.7632  139.4221  168.6622 N.ar    1  UNL1       -0.2165
     19 C         142.6394  139.9675  167.2704 C.ar    1  UNL1        0.1012
     20 N         140.6947  145.6793  161.9563 N.3     1  UNL1       -0.1830
     21 H         141.3492  146.1760  162.5606 H       1  UNL1        0.1484
     22 S         139.6648  145.0574  162.8521 S.O2    1  UNL1        0.0390
     23 O         138.8495  144.6781  161.6515 O.2     1  UNL1       -0.1576
     24 O         140.4800  145.4367  164.0527 O.2     1  UNL1       -0.1576
     25 C         137.6329  143.4725  163.1832 C.3     1  UNL1        0.0270
     26 C         138.6348  144.4355  163.7479 C.3     1  UNL1        0.1457
     27 C         138.6067  144.7766  165.2083 C.3     1  UNL1        0.0270
@<TRIPOS>BOND
     1    25    26    1
     2    26    27    1
     3    26    22    1
     4    22    23    2
     5    22    24    2
     6    22    20    1
     7     1    20    1
     8     1     2    1
     9     2     3    1
    10     3     4    1
    11     3     5    1
    12     5     6    1
    13     6     7    1
    14     7     8   ar
    15     8     9   ar
    16     9    10   ar
    17    10    13    1
    18    13    14   ar
    19    14    15   ar
    20    15    16   ar
    21    16    17    1
    22    16    18   ar
    23    18    19   ar
    24    10    11   ar
    25    11    12   ar
    26     6     1    1
    27    12     7   ar
    28    19    13   ar
    29    20    21    1
@<TRIPOS>MOLECULE
*****
 27 29 0 0 0
SMALL
GASTEIGER

@<TRIPOS>ATOM
      1 C         141.7954  144.4678  161.2722 C.3     1  UNL1        0.0964
      2 C         141.4850  144.6962  159.8225 C.3     1  UNL1        0.0901
      3 N         140.2199  143.9587  159.4975 N.3     1  UNL1       -0.2700
      4 C         139.5448  143.9133  158.1588 C.3     1  UNL1        0.0897
      5 C         139.7485  143.2744  160.7464 C.3     1  UNL1        0.0780
      6 C         140.7222  143.5891  161.8431 C.3     1  UNL1        0.0557
      7 C         140.6375  143.1093  163.2618 C.ar    1  UNL1       -0.0197
      8 C         141.1407  141.7431  163.6228 C.ar    1  UNL1       -0.0042
      9 C         141.0560  141.2633  165.0415 C.ar    1  UNL1       -0.0003
     10 C         140.4680  142.1497  166.0991 C.ar    1  UNL1        0.0015
     11 C         139.9648  143.5159  165.7382 C.ar    1  UNL1       -0.0003
     12 C         140.0495  143.9956  164.3195 C.ar    1  UNL1       -0.0042
     13 C         140.3833  141.6699  167.5178 C.ar    1  UNL1        0.0193
     14 C         140.7143  142.6016  168.6457 C.ar    1  UNL1        0.0055
     15 C         140.6296  142.1218  170.0644 C.ar    1  UNL1        0.0497
     16 C         140.2139  140.7102  170.3552 C.ar    1  UNL1        0.2223
     17 F         140.1292  140.2303  171.7738 F       1  UNL1       -0.1832
     18 N         139.8830  139.7784  169.2272 N.ar    1  UNL1       -0.2165
     19 C         139.9677  140.2582  167.8085 C.ar    1  UNL1        0.1012
     20 N         142.9724  145.0210  162.0196 N.3     1  UNL1       -0.1830
     21 H         143.6282  145.3690  161.3201 H       1  UNL1        0.1484
     22 S         143.7551  144.1382  162.9457 S.O2    1  UNL1        0.0390
     23 O         144.1197  143.2513  161.7922 O.2     1  UNL1       -0.1576
     24 O         143.3906  145.0250  164.0992 O.2     1  UNL1       -0.1576
     25 C         145.3735  142.1400  163.3170 C.3     1  UNL1        0.0270
     26 C         144.5379  143.2553  163.8719 C.3     1  UNL1        0.1457
     27 C         144.4851  143.4877  165.3528 C.3     1  UNL1        0.0270
@<TRIPOS>BOND
     1    25    26    1
     2    26    27    1
     3    26    22    1
     4    22    23    2
     5    22    24    2
     6    22    20    1
     7     1    20    1
     8     1     2    1
     9     2     3    1
    10     3     4    1
    11     3     5    1
    12     5     6    1
    13     6     7    1
    14     7     8   ar
    15     8     9   ar
    16     9    10   ar
    17    10    13    1
    18    13    14   ar
    19    14    15   ar
    20    15    16   ar
    21    16    17    1
    22    16    18   ar
    23    18    19   ar
    24    10    11   ar
    25    11    12   ar
    26     6     1    1
    27    12     7   ar
    28    19    13   ar
    29    20    21    1
@<TRIPOS>MOLECULE
*****
 27 29 0 0 0
SMALL
GASTEIGER

@<TRIPOS>ATOM
      1 C         138.3478  141.6924  160.6414 C.3     1  UNL1        0.0964
      2 C         138.3778  141.2202  159.2180 C.3     1  UNL1        0.0901
      3 N         139.1552  139.9381  159.1712 N.3     1  UNL1       -0.2700
      4 C         139.4334  139.1199  157.9452 C.3     1  UNL1        0.0897
      5 C         139.6057  139.6181  160.5657 C.3     1  UNL1        0.0780
      6 C         139.1066  140.7022  161.4743 C.3     1  UNL1        0.0557
      7 C         139.3277  140.7822  162.9558 C.ar    1  UNL1       -0.0197
      8 C         138.2607  140.3127  163.8998 C.ar    1  UNL1       -0.0042
      9 C         138.4817  140.3927  165.3812 C.ar    1  UNL1       -0.0003
     10 C         139.7698  140.9422  165.9187 C.ar    1  UNL1        0.0015
     11 C         140.8368  141.4116  164.9748 C.ar    1  UNL1       -0.0003
     12 C         140.6158  141.3317  163.4934 C.ar    1  UNL1       -0.0042
     13 C         139.9909  141.0221  167.4002 C.ar    1  UNL1        0.0193
     14 C         140.6369  142.2369  167.9976 C.ar    1  UNL1        0.0055
     15 C         140.8579  142.3168  169.4792 C.ar    1  UNL1        0.0497
     16 C         140.4329  141.1820  170.3632 C.ar    1  UNL1        0.2223
     17 F         140.6539  141.2619  171.8446 F       1  UNL1       -0.1832
     18 N         139.7869  139.9672  169.7657 N.ar    1  UNL1       -0.2165
     19 C         139.5658  139.8873  168.2842 C.ar    1  UNL1        0.1012
     20 N         137.6767  142.9363  161.1436 N.3     1  UNL1       -0.1830
     21 H         137.3451  143.4437  160.3232 H       1  UNL1        0.1484
     22 S         138.4444  143.9178  161.9787 S.O2    1  UNL1        0.0390
     23 O         137.5435  143.6313  163.1434 O.2     1  UNL1       -0.1576
     24 O         139.3451  144.2042  160.8140 O.2     1  UNL1       -0.1576
     25 C         139.1792  144.7980  164.3100 C.3     1  UNL1        0.0270
     26 C         139.2120  144.8992  162.8138 C.3     1  UNL1        0.1457
     27 C         140.0123  145.9820  162.1528 C.3     1  UNL1        0.0270
@<TRIPOS>BOND
     1    25    26    1
     2    26    27    1
     3    26    22    1
     4    22    23    2
     5    22    24    2
     6    22    20    1
     7     1    20    1
     8     1     2    1
     9     2     3    1
    10     3     4    1
    11     3     5    1
    12     5     6    1
    13     6     7    1
    14     7     8   ar
    15     8     9   ar
    16     9    10   ar
    17    10    13    1
    18    13    14   ar
    19    14    15   ar
    20    15    16   ar
    21    16    17    1
    22    16    18   ar
    23    18    19   ar
    24    10    11   ar
    25    11    12   ar
    26     6     1    1
    27    12     7   ar
    28    19    13   ar
    29    20    21    1
@<TRIPOS>MOLECULE
*****
 27 29 0 0 0
SMALL
GASTEIGER

@<TRIPOS>ATOM
      1 C         138.1853  140.4405  161.3460 C.3     1  UNL1        0.0964
      2 C         138.1306  140.0737  159.8926 C.3     1  UNL1        0.0901
      3 N         139.2872  139.1645  159.6001 N.3     1  UNL1       -0.2700
      4 C         139.6165  138.5571  158.2687 C.3     1  UNL1        0.0897
      5 C         140.0567  138.9694  160.8728 C.3     1  UNL1        0.0780
      6 C         139.3757  139.7579  161.9518 C.3     1  UNL1        0.0557
      7 C         139.8091  139.8481  163.3851 C.ar    1  UNL1       -0.0197
      8 C         139.1736  138.9651  164.4177 C.ar    1  UNL1       -0.0042
      9 C         139.6070  139.0554  165.8509 C.ar    1  UNL1       -0.0003
     10 C         140.6758  140.0286  166.2514 C.ar    1  UNL1        0.0015
     11 C         141.3113  140.9116  165.2187 C.ar    1  UNL1       -0.0003
     12 C         140.8779  140.8214  163.7856 C.ar    1  UNL1       -0.0042
     13 C         141.1092  140.1188  167.6847 C.ar    1  UNL1        0.0193
     14 C         140.0850  140.2740  168.7695 C.ar    1  UNL1        0.0055
     15 C         140.5184  140.3642  170.2028 C.ar    1  UNL1        0.0497
     16 C         141.9759  140.2992  170.5511 C.ar    1  UNL1        0.2223
     17 F         142.4093  140.3894  171.9842 F       1  UNL1       -0.1832
     18 N         143.0001  140.1439  169.4661 N.ar    1  UNL1       -0.2165
     19 C         142.5667  140.0538  168.0330 C.ar    1  UNL1        0.1012
     20 N         137.2191  141.3331  162.0670 N.3     1  UNL1       -0.1830
     21 H         136.4912  141.5812  161.3970 H       1  UNL1        0.1484
     22 S         137.6974  142.6152  162.6812 S.O2    1  UNL1        0.0390
     23 O         137.9286  143.1844  161.3128 O.2     1  UNL1       -0.1576
     24 O         137.4663  142.0460  164.0496 O.2     1  UNL1       -0.1576
     25 C         137.8238  144.2257  164.7160 C.3     1  UNL1        0.0270
     26 C         138.1758  143.8974  163.2953 C.3     1  UNL1        0.1457
     27 C         139.0061  144.8513  162.4888 C.3     1  UNL1        0.0270
@<TRIPOS>BOND
     1    25    26    1
     2    26    27    1
     3    26    22    1
     4    22    23    2
     5    22    24    2
     6    22    20    1
     7     1    20    1
     8     1     2    1
     9     2     3    1
    10     3     4    1
    11     3     5    1
    12     5     6    1
    13     6     7    1
    14     7     8   ar
    15     8     9   ar
    16     9    10   ar
    17    10    13    1
    18    13    14   ar
    19    14    15   ar
    20    15    16   ar
    21    16    17    1
    22    16    18   ar
    23    18    19   ar
    24    10    11   ar
    25    11    12   ar
    26     6     1    1
    27    12     7   ar
    28    19    13   ar
    29    20    21    1
@<TRIPOS>MOLECULE
*****
 27 29 0 0 0
SMALL
GASTEIGER

@<TRIPOS>ATOM
      1 C         138.8120  139.6675  160.4401 C.3     1  UNL1        0.0964
      2 C         138.4937  140.0836  159.0346 C.3     1  UNL1        0.0901
      3 N         138.2936  141.5702  159.0252 N.3     1  UNL1       -0.2700
      4 C         137.9578  142.4071  157.8266 C.3     1  UNL1        0.0897
      5 C         138.4883  142.0728  160.4250 C.3     1  UNL1        0.0780
      6 C         138.8087  140.8969  161.2994 C.3     1  UNL1        0.0557
      7 C         139.0785  140.9425  162.7743 C.ar    1  UNL1       -0.0197
      8 C         138.0087  140.5391  163.7453 C.ar    1  UNL1       -0.0042
      9 C         138.2784  140.5847  165.2201 C.ar    1  UNL1       -0.0003
     10 C         139.6181  141.0336  165.7240 C.ar    1  UNL1        0.0015
     11 C         140.6879  141.4370  164.7530 C.ar    1  UNL1       -0.0003
     12 C         140.4181  141.3914  163.2782 C.ar    1  UNL1       -0.0042
     13 C         139.8878  141.0792  167.1988 C.ar    1  UNL1        0.0193
     14 C         140.5799  142.2673  167.7984 C.ar    1  UNL1        0.0055
     15 C         140.8496  142.3129  169.2733 C.ar    1  UNL1        0.0497
     16 C         140.4273  141.1703  170.1486 C.ar    1  UNL1        0.2223
     17 F         140.6970  141.2158  171.6234 F       1  UNL1       -0.1832
     18 N         139.7352  139.9822  169.5490 N.ar    1  UNL1       -0.2165
     19 C         139.4655  139.9366  168.0742 C.ar    1  UNL1        0.1012
     20 N         139.0856  138.2678  160.9047 N.3     1  UNL1       -0.1830
     21 H         138.2393  137.9417  161.3714 H       1  UNL1        0.1484
     22 S         140.2271  137.9973  161.8394 S.O2    1  UNL1        0.0390
     23 O         141.1896  138.5238  160.8163 O.2     1  UNL1       -0.1576
     24 O         139.2648  137.4709  162.8624 O.2     1  UNL1       -0.1576
     25 C         141.1080  137.1189  164.1203 C.3     1  UNL1        0.0270
     26 C         141.3687  137.7269  162.7741 C.3     1  UNL1        0.1457
     27 C         142.7711  138.0645  162.3625 C.3     1  UNL1        0.0270
@<TRIPOS>BOND
     1    25    26    1
     2    26    27    1
     3    26    22    1
     4    22    23    2
     5    22    24    2
     6    22    20    1
     7     1    20    1
     8     1     2    1
     9     2     3    1
    10     3     4    1
    11     3     5    1
    12     5     6    1
    13     6     7    1
    14     7     8   ar
    15     8     9   ar
    16     9    10   ar
    17    10    13    1
    18    13    14   ar
    19    14    15   ar
    20    15    16   ar
    21    16    17    1
    22    16    18   ar
    23    18    19   ar
    24    10    11   ar
    25    11    12   ar
    26     6     1    1
    27    12     7   ar
    28    19    13   ar
    29    20    21    1
@<TRIPOS>MOLECULE
*****
 27 29 0 0 0
SMALL
GASTEIGER

@<TRIPOS>ATOM
      1 C         142.6560  138.4309  160.8651 C.3     1  UNL1        0.0964
      2 C         143.0370  138.5257  159.4174 C.3     1  UNL1        0.0901
      3 N         143.7775  139.8146  159.2163 N.3     1  UNL1       -0.2700
      4 C         144.3422  140.3141  157.9196 C.3     1  UNL1        0.0897
      5 C         143.8541  140.5164  160.5398 C.3     1  UNL1        0.0780
      6 C         143.1610  139.6612  161.5588 C.3     1  UNL1        0.0557
      7 C         143.0009  139.9804  163.0157 C.ar    1  UNL1       -0.0197
      8 C         142.0210  141.0295  163.4504 C.ar    1  UNL1       -0.0042
      9 C         141.8610  141.3486  164.9073 C.ar    1  UNL1       -0.0003
     10 C         142.6809  140.6186  165.9295 C.ar    1  UNL1        0.0015
     11 C         143.6608  139.5694  165.4948 C.ar    1  UNL1       -0.0003
     12 C         143.8208  139.2503  164.0379 C.ar    1  UNL1       -0.0042
     13 C         142.5208  140.9377  167.3864 C.ar    1  UNL1        0.0193
     14 C         143.0504  142.2300  167.9337 C.ar    1  UNL1        0.0055
     15 C         142.8903  142.5492  169.3906 C.ar    1  UNL1        0.0497
     16 C         142.2007  141.5760  170.3002 C.ar    1  UNL1        0.2223
     17 F         142.0407  141.8951  171.7571 F       1  UNL1       -0.1832
     18 N         141.6712  140.2836  169.7529 N.ar    1  UNL1       -0.2165
     19 C         141.8313  139.9645  168.2960 C.ar    1  UNL1        0.1012
     20 N         141.9023  137.3036  161.5064 N.3     1  UNL1       -0.1830
     21 H         141.6595  136.6504  160.7615 H       1  UNL1        0.1484
     22 S         140.6397  137.5822  162.2666 S.O2    1  UNL1        0.0390
     23 O         140.0323  138.1876  161.0358 O.2     1  UNL1       -0.1576
     24 O         141.2470  136.9769  163.4972 O.2     1  UNL1       -0.1576
     25 C         138.1139  138.1907  162.2877 C.3     1  UNL1        0.0270
     26 C         139.3769  137.8609  163.0267 C.3     1  UNL1        0.1457
     27 C         139.3771  137.8097  164.5258 C.3     1  UNL1        0.0270
@<TRIPOS>BOND
     1    25    26    1
     2    26    27    1
     3    26    22    1
     4    22    23    2
     5    22    24    2
     6    22    20    1
     7     1    20    1
     8     1     2    1
     9     2     3    1
    10     3     4    1
    11     3     5    1
    12     5     6    1
    13     6     7    1
    14     7     8   ar
    15     8     9   ar
    16     9    10   ar
    17    10    13    1
    18    13    14   ar
    19    14    15   ar
    20    15    16   ar
    21    16    17    1
    22    16    18   ar
    23    18    19   ar
    24    10    11   ar
    25    11    12   ar
    26     6     1    1
    27    12     7   ar
    28    19    13   ar
    29    20    21    1
@<TRIPOS>MOLECULE
*****
 27 29 0 0 0
SMALL
GASTEIGER

@<TRIPOS>ATOM
      1 C         144.1260  141.7396  160.7814 C.3     1  UNL1        0.0964
      2 C         144.1596  141.6271  159.2860 C.3     1  UNL1        0.0901
      3 N         143.0379  140.7252  158.8636 N.3     1  UNL1       -0.2700
      4 C         142.7020  140.3365  157.4544 C.3     1  UNL1        0.0897
      5 C         142.3111  140.2803  160.0980 C.3     1  UNL1        0.0780
      6 C         142.9836  140.9072  161.2833 C.3     1  UNL1        0.0557
      7 C         142.5837  140.7323  162.7185 C.ar    1  UNL1       -0.0197
      8 C         141.4367  141.5199  163.2788 C.ar    1  UNL1       -0.0042
      9 C         141.0370  141.3451  164.7139 C.ar    1  UNL1       -0.0003
     10 C         141.7842  140.3826  165.5886 C.ar    1  UNL1        0.0015
     11 C         142.9312  139.5949  165.0283 C.ar    1  UNL1       -0.0003
     12 C         143.3310  139.7698  163.5932 C.ar    1  UNL1       -0.0042
     13 C         141.3844  140.2077  167.0238 C.ar    1  UNL1        0.0193
     14 C         142.3809  139.7004  168.0235 C.ar    1  UNL1        0.0055
     15 C         141.9811  139.5256  169.4587 C.ar    1  UNL1        0.0497
     16 C         140.5847  139.8580  169.8941 C.ar    1  UNL1        0.2223
     17 F         140.1848  139.6832  171.3292 F       1  UNL1       -0.1832
     18 N         139.5881  140.3654  168.8943 N.ar    1  UNL1       -0.2165
     19 C         139.9880  140.5402  167.4592 C.ar    1  UNL1        0.1012
     20 N         145.0693  142.5433  161.6265 N.3     1  UNL1       -0.1830
     21 H         145.7851  141.8992  161.9627 H       1  UNL1        0.1484
     22 S         144.5563  143.2845  162.8254 S.O2    1  UNL1        0.0390
     23 O         145.3759  142.4033  163.7209 O.2     1  UNL1       -0.1576
     24 O         143.7368  144.1657  161.9301 O.2     1  UNL1       -0.1576
     25 C         143.0793  145.1612  163.8484 C.3     1  UNL1        0.0270
     26 C         144.0435  144.0257  164.0244 C.3     1  UNL1        0.1457
     27 C         144.4947  143.6314  165.3995 C.3     1  UNL1        0.0270
@<TRIPOS>BOND
     1    25    26    1
     2    26    27    1
     3    26    22    1
     4    22    23    2
     5    22    24    2
     6    22    20    1
     7     1    20    1
     8     1     2    1
     9     2     3    1
    10     3     4    1
    11     3     5    1
    12     5     6    1
    13     6     7    1
    14     7     8   ar
    15     8     9   ar
    16     9    10   ar
    17    10    13    1
    18    13    14   ar
    19    14    15   ar
    20    15    16   ar
    21    16    17    1
    22    16    18   ar
    23    18    19   ar
    24    10    11   ar
    25    11    12   ar
    26     6     1    1
    27    12     7   ar
    28    19    13   ar
    29    20    21    1
@<TRIPOS>MOLECULE
*****
 27 29 0 0 0
SMALL
GASTEIGER

@<TRIPOS>ATOM
      1 C         143.2993  142.9328  160.5272 C.3     1  UNL1        0.0964
      2 C         142.8576  143.6826  159.3054 C.3     1  UNL1        0.0901
      3 N         141.7286  144.5880  159.7000 N.3     1  UNL1       -0.2700
      4 C         140.9861  145.5199  158.7889 C.3     1  UNL1        0.0897
      5 C         141.4725  144.3977  161.1657 C.3     1  UNL1        0.0780
      6 C         142.4432  143.3748  161.6769 C.3     1  UNL1        0.0557
      7 C         142.5408  142.8806  163.0899 C.ar    1  UNL1       -0.0197
      8 C         143.6696  143.3348  163.9670 C.ar    1  UNL1       -0.0042
      9 C         143.7671  142.8406  165.3799 C.ar    1  UNL1       -0.0003
     10 C         142.7357  141.8923  165.9156 C.ar    1  UNL1        0.0015
     11 C         141.6069  141.4381  165.0384 C.ar    1  UNL1       -0.0003
     12 C         141.5094  141.9323  163.6256 C.ar    1  UNL1       -0.0042
     13 C         142.8333  141.3981  167.3286 C.ar    1  UNL1        0.0193
     14 C         143.1515  142.3562  168.4379 C.ar    1  UNL1        0.0055
     15 C         143.2491  141.8620  169.8509 C.ar    1  UNL1        0.0497
     16 C         143.0283  140.4097  170.1544 C.ar    1  UNL1        0.2223
     17 F         143.1258  139.9155  171.5672 F       1  UNL1       -0.1832
     18 N         142.7100  139.4516  169.0449 N.ar    1  UNL1       -0.2165
     19 C         142.6125  139.9458  167.6321 C.ar    1  UNL1        0.1012
     20 N         144.4031  141.9191  160.5885 N.3     1  UNL1       -0.1830
     21 H         144.6684  141.7141  159.6252 H       1  UNL1        0.1484
     22 S         144.1734  140.5999  161.2643 S.O2    1  UNL1        0.0390
     23 O         145.2483  140.9226  162.2596 O.2     1  UNL1       -0.1576
     24 O         143.0985  140.2771  160.2692 O.2     1  UNL1       -0.1576
     25 C         144.0066  139.1832  163.4358 C.3     1  UNL1        0.0270
     26 C         143.9437  139.2807  161.9403 C.3     1  UNL1        0.1457
     27 C         143.6511  138.0589  161.1208 C.3     1  UNL1        0.0270
@<TRIPOS>BOND
     1    25    26    1
     2    26    27    1
     3    26    22    1
     4    22    23    2
     5    22    24    2
     6    22    20    1
     7     1    20    1
     8     1     2    1
     9     2     3    1
    10     3     4    1
    11     3     5    1
    12     5     6    1
    13     6     7    1
    14     7     8   ar
    15     8     9   ar
    16     9    10   ar
    17    10    13    1
    18    13    14   ar
    19    14    15   ar
    20    15    16   ar
    21    16    17    1
    22    16    18   ar
    23    18    19   ar
    24    10    11   ar
    25    11    12   ar
    26     6     1    1
    27    12     7   ar
    28    19    13   ar
    29    20    21    1
@<TRIPOS>MOLECULE
*****
 27 29 0 0 0
SMALL
GASTEIGER

@<TRIPOS>ATOM
      1 C         143.3223  139.3559  160.7370 C.3     1  UNL1        0.0964
      2 C         143.1141  139.0493  159.2836 C.3     1  UNL1        0.0901
      3 N         141.6976  138.5890  159.1052 N.3     1  UNL1       -0.2700
      4 C         141.0602  138.1787  157.8109 C.3     1  UNL1        0.0897
      5 C         141.0304  138.6112  160.4485 C.3     1  UNL1        0.0780
      6 C         142.0346  139.0852  161.4570 C.3     1  UNL1        0.0557
      7 C         141.7933  139.2581  162.9274 C.ar    1  UNL1       -0.0197
      8 C         142.2055  138.1812  163.8868 C.ar    1  UNL1       -0.0042
      9 C         141.9642  138.3541  165.3571 C.ar    1  UNL1       -0.0003
     10 C         141.3107  139.6039  165.8680 C.ar    1  UNL1        0.0015
     11 C         140.8985  140.6807  164.9086 C.ar    1  UNL1       -0.0003
     12 C         141.1398  140.5078  163.4383 C.ar    1  UNL1       -0.0042
     13 C         141.0694  139.7768  167.3384 C.ar    1  UNL1        0.0193
     14 C         142.2293  139.8241  168.2883 C.ar    1  UNL1        0.0055
     15 C         141.9880  139.9970  169.7587 C.ar    1  UNL1        0.0497
     16 C         140.5868  140.1225  170.2791 C.ar    1  UNL1        0.2223
     17 F         140.3455  140.2954  171.7494 F       1  UNL1       -0.1832
     18 N         139.4269  140.0751  169.3291 N.ar    1  UNL1       -0.2165
     19 C         139.6682  139.9023  167.8588 C.ar    1  UNL1        0.1012
     20 N         144.5949  139.8470  161.3609 N.3     1  UNL1       -0.1830
     21 H         144.9419  139.0934  161.9542 H       1  UNL1        0.1484
     22 S         144.5879  141.0903  162.2000 S.O2    1  UNL1        0.0390
     23 O         144.0738  141.8766  161.0305 O.2     1  UNL1       -0.1576
     24 O         145.1019  140.3042  163.3694 O.2     1  UNL1       -0.1576
     25 C         144.6780  142.2315  164.5323 C.3     1  UNL1        0.0270
     26 C         144.5808  142.3337  163.0390 C.3     1  UNL1        0.1457
     27 C         144.4764  143.6794  162.3846 C.3     1  UNL1        0.0270
@<TRIPOS>BOND
     1    25    26    1
     2    26    27    1
     3    26    22    1
     4    22    23    2
     5    22    24    2
     6    22    20    1
     7     1    20    1
     8     1     2    1
     9     2     3    1
    10     3     4    1
    11     3     5    1
    12     5     6    1
    13     6     7    1
    14     7     8   ar
    15     8     9   ar
    16     9    10   ar
    17    10    13    1
    18    13    14   ar
    19    14    15   ar
    20    15    16   ar
    21    16    17    1
    22    16    18   ar
    23    18    19   ar
    24    10    11   ar
    25    11    12   ar
    26     6     1    1
    27    12     7   ar
    28    19    13   ar
    29    20    21    1
