@<TRIPOS>MOLECULE
*****
 40 43 0 0 0
SMALL
GASTEIGER

@<TRIPOS>ATOM
      1 C         140.6741  139.2209  163.1125 C.ar    1  UNL1        0.2220
      2 N         140.1288  138.0242  162.3909 N.ar    1  UNL1       -0.2110
      3 C         138.9644  138.1772  161.4578 C.ar    1  UNL1        0.1160
      4 C         138.3453  139.5270  161.2461 C.ar    1  UNL1        0.1085
      5 CL        137.1809  139.6801  160.3129 Cl      1  UNL1       -0.0777
      6 C         138.8906  140.7237  161.9676 C.ar    1  UNL1        0.1472
      7 N         140.0549  140.5707  162.9008 N.ar    1  UNL1       -0.1976
      8 N         141.8384  139.0679  164.0456 N.pl3   1  UNL1       -0.2801
      9 H         142.6167  138.5280  163.7773 H       1  UNL1        0.1552
     10 C         142.9597  140.6142  165.8068 C.ar    1  UNL1        0.1517
     11 C         142.9382  141.2838  167.1489 C.ar    1  UNL1        0.0336
     12 C         141.7740  141.0766  168.0719 C.ar    1  UNL1       -0.0224
     13 C         140.6314  140.1999  167.6528 C.ar    1  UNL1       -0.0246
     14 C         140.6529  139.5304  166.3107 C.ar    1  UNL1        0.0132
     15 C         141.8170  139.7375  165.3878 C.ar    1  UNL1        0.0846
     16 C         139.4672  139.9928  168.5758 C.3     1  UNL1        0.0275
     17 C         139.4458  140.6624  169.9178 C.3     1  UNL1        0.0205
     18 C         140.5885  141.5391  170.3370 C.3     1  UNL1        0.0548
     19 N         140.5670  142.2087  171.6790 N.3     1  UNL1       -0.3219
     20 C         141.7526  141.7463  169.4140 C.3     1  UNL1        0.0317
     21 C         143.0679  142.2462  168.8945 C.3     1  UNL1        0.0057
     22 C         142.1879  142.5895  170.5757 C.3     1  UNL1        0.0057
     23 H         139.7083  141.9593  172.1697 H       1  UNL1        0.1188
     24 H         140.6061  143.2204  171.5550 H       1  UNL1        0.1188
     25 C         144.5805  142.2112  164.5529 C.3     1  UNL1        0.2525
     26 O         144.1238  140.8213  164.8839 O.3     1  UNL1       -0.4702
     27 N         138.2714  142.0735  161.7559 N.pl3   1  UNL1       -0.2961
     28 H         137.3435  142.2395  162.0399 H       1  UNL1        0.1537
     29 C         139.0661  143.1705  161.1117 C.ar    1  UNL1        0.0667
     30 C         139.2400  143.1952  159.6220 C.ar    1  UNL1        0.0159
     31 C         140.0347  144.2921  158.9777 C.ar    1  UNL1        0.0014
     32 C         140.6556  145.3645  159.8232 C.ar    1  UNL1        0.0014
     33 C         140.4817  145.3398  161.3129 C.ar    1  UNL1        0.0196
     34 C         139.6869  144.2428  161.9571 C.ar    1  UNL1        0.1189
     35 S         139.5130  144.2181  163.4468 S.O2    1  UNL1        0.0082
     36 O         140.9744  143.9235  163.6125 O.2     1  UNL1       -0.1686
     37 O         138.0516  144.5127  163.2811 O.2     1  UNL1       -0.1686
     38 C         139.3391  144.1934  164.9365 C.3     1  UNL1        0.1340
     39 C         140.2005  143.2984  165.7774 C.3     1  UNL1        0.0257
     40 C         138.3040  145.0637  165.5852 C.3     1  UNL1        0.0257
@<TRIPOS>BOND
     1    25    26    1
     2    26    10    1
     3    10    11   ar
     4    11    12   ar
     5    12    13   ar
     6    13    14   ar
     7    14    15   ar
     8    15     8    1
     9     8     1    1
    10     1     2   ar
    11     2     3   ar
    12     3     4   ar
    13     4     5    1
    14     4     6   ar
    15     6    27    1
    16    27    29    1
    17    29    30   ar
    18    30    31   ar
    19    31    32   ar
    20    32    33   ar
    21    33    34   ar
    22    34    35    1
    23    35    36    2
    24    35    37    2
    25    35    38    1
    26    38    39    1
    27    38    40    1
    28     6     7   ar
    29    13    16    1
    30    16    17    1
    31    17    18    1
    32    18    19    1
    33    18    20    1
    34    20    21    1
    35    20    22    1
    36    15    10   ar
    37     7     1   ar
    38    20    12    1
    39    34    29   ar
    40     8     9    1
    41    27    28    1
    42    19    23    1
    43    19    24    1
@<TRIPOS>MOLECULE
*****
 40 43 0 0 0
SMALL
GASTEIGER

@<TRIPOS>ATOM
      1 C         140.1851  138.9448  163.3091 C.ar    1  UNL1        0.2220
      2 N         140.6914  138.0120  162.2491 N.ar    1  UNL1       -0.2110
      3 C         141.2282  138.5615  160.9607 C.ar    1  UNL1        0.1160
      4 C         141.2586  140.0438  160.7324 C.ar    1  UNL1        0.1085
      5 CL        141.7954  140.5932  159.4440 Cl      1  UNL1       -0.0777
      6 C         140.7523  140.9765  161.7924 C.ar    1  UNL1        0.1472
      7 N         140.2155  140.4270  163.0808 N.ar    1  UNL1       -0.1976
      8 N         139.6483  138.3953  164.5975 N.pl3   1  UNL1       -0.2801
      9 H         139.1194  137.5650  164.5961 H       1  UNL1        0.1552
     10 C         138.8384  139.2201  166.9243 C.ar    1  UNL1        0.1517
     11 C         139.1075  139.9358  168.2147 C.ar    1  UNL1        0.0336
     12 C         140.4556  140.5424  168.4690 C.ar    1  UNL1       -0.0224
     13 C         141.5346  140.4334  167.4327 C.ar    1  UNL1       -0.0246
     14 C         141.2655  139.7177  166.1423 C.ar    1  UNL1        0.0132
     15 C         139.9174  139.1111  165.8881 C.ar    1  UNL1        0.0846
     16 C         142.8827  141.0400  167.6869 C.3     1  UNL1        0.0275
     17 C         143.1518  141.7557  168.9774 C.3     1  UNL1        0.0205
     18 C         142.0728  141.8648  170.0137 C.3     1  UNL1        0.0548
     19 N         142.3419  142.5805  171.3042 N.3     1  UNL1       -0.3219
     20 C         140.7247  141.2582  169.7595 C.3     1  UNL1        0.0317
     21 C         139.2980  140.8510  169.9800 C.3     1  UNL1        0.0057
     22 C         140.4983  141.8325  171.1266 C.3     1  UNL1        0.0057
     23 H         143.3013  142.9269  171.3072 H       1  UNL1        0.1188
     24 H         142.2105  141.9363  172.0840 H       1  UNL1        0.1188
     25 C         136.8740  137.7015  167.6890 C.3     1  UNL1        0.2525
     26 O         137.4903  138.6135  166.6701 O.3     1  UNL1       -0.4702
     27 N         140.7827  142.4587  161.5640 N.pl3   1  UNL1       -0.2961
     28 H         140.0924  142.8851  161.0064 H       1  UNL1        0.1537
     29 C         141.8647  143.2912  162.1853 C.ar    1  UNL1        0.0667
     30 C         143.2813  143.1554  161.7110 C.ar    1  UNL1        0.0159
     31 C         144.3633  143.9879  162.3323 C.ar    1  UNL1        0.0014
     32 C         144.0288  144.9563  163.4279 C.ar    1  UNL1        0.0014
     33 C         142.6123  145.0921  163.9023 C.ar    1  UNL1        0.0196
     34 C         141.5302  144.2595  163.2809 C.ar    1  UNL1        0.1189
     35 S         140.1137  144.3954  163.7552 S.O2    1  UNL1        0.0082
     36 O         140.3689  143.3629  164.8131 O.2     1  UNL1       -0.1686
     37 O         139.8585  145.4278  162.6974 O.2     1  UNL1       -0.1686
     38 C         138.6972  144.5312  164.2296 C.3     1  UNL1        0.1340
     39 C         137.5623  144.1919  163.3092 C.3     1  UNL1        0.0257
     40 C         138.4155  145.0062  165.6241 C.3     1  UNL1        0.0257
@<TRIPOS>BOND
     1    25    26    1
     2    26    10    1
     3    10    11   ar
     4    11    12   ar
     5    12    13   ar
     6    13    14   ar
     7    14    15   ar
     8    15     8    1
     9     8     1    1
    10     1     2   ar
    11     2     3   ar
    12     3     4   ar
    13     4     5    1
    14     4     6   ar
    15     6    27    1
    16    27    29    1
    17    29    30   ar
    18    30    31   ar
    19    31    32   ar
    20    32    33   ar
    21    33    34   ar
    22    34    35    1
    23    35    36    2
    24    35    37    2
    25    35    38    1
    26    38    39    1
    27    38    40    1
    28     6     7   ar
    29    13    16    1
    30    16    17    1
    31    17    18    1
    32    18    19    1
    33    18    20    1
    34    20    21    1
    35    20    22    1
    36    15    10   ar
    37     7     1   ar
    38    20    12    1
    39    34    29   ar
    40     8     9    1
    41    27    28    1
    42    19    23    1
    43    19    24    1
@<TRIPOS>MOLECULE
*****
 40 43 0 0 0
SMALL
GASTEIGER

@<TRIPOS>ATOM
      1 C         141.0190  138.5771  163.2206 C.ar    1  UNL1        0.2220
      2 N         140.5782  137.7344  162.0605 N.ar    1  UNL1       -0.2110
      3 C         140.1310  138.3874  160.7863 C.ar    1  UNL1        0.1160
      4 C         140.1245  139.8831  160.6722 C.ar    1  UNL1        0.1085
      5 CL        139.6773  140.5361  159.3980 Cl      1  UNL1       -0.0777
      6 C         140.5653  140.7257  161.8322 C.ar    1  UNL1        0.1472
      7 N         141.0125  140.0727  163.1064 N.ar    1  UNL1       -0.1976
      8 N         141.4663  137.9241  164.4948 N.pl3   1  UNL1       -0.2801
      9 H         141.7217  136.9733  164.4974 H       1  UNL1        0.1552
     10 C         142.8393  139.2411  166.2641 C.ar    1  UNL1        0.1517
     11 C         142.8973  140.0367  167.5343 C.ar    1  UNL1        0.0336
     12 C         141.6403  140.3111  168.3056 C.ar    1  UNL1       -0.0224
     13 C         140.3254  139.7897  167.8066 C.ar    1  UNL1       -0.0246
     14 C         140.2674  138.9941  166.5363 C.ar    1  UNL1        0.0132
     15 C         141.5243  138.7198  165.7651 C.ar    1  UNL1        0.0846
     16 C         139.0684  140.0641  168.5778 C.3     1  UNL1        0.0275
     17 C         139.1264  140.8597  169.8480 C.3     1  UNL1        0.0205
     18 C         140.4414  141.3811  170.3471 C.3     1  UNL1        0.0548
     19 N         140.4994  142.1767  171.6173 N.3     1  UNL1       -0.3219
     20 C         141.6984  141.1067  169.5759 C.3     1  UNL1        0.0317
     21 C         143.1506  141.1090  169.2005 C.3     1  UNL1        0.0057
     22 C         142.2608  141.9032  170.7158 C.3     1  UNL1        0.0057
     23 H         139.5606  142.2656  172.0060 H       1  UNL1        0.1188
     24 H         140.8753  143.1043  171.4206 H       1  UNL1        0.1188
     25 C         144.4755  139.8471  164.3391 C.3     1  UNL1        0.2525
     26 O         144.0963  138.9668  165.4929 O.3     1  UNL1       -0.4702
     27 N         140.5588  142.2214  161.7181 N.pl3   1  UNL1       -0.2961
     28 H         141.0238  142.6599  160.9693 H       1  UNL1        0.1537
     29 C         139.8439  143.0488  162.7448 C.ar    1  UNL1        0.0667
     30 C         138.3492  143.1680  162.7037 C.ar    1  UNL1        0.0159
     31 C         137.6342  143.9954  163.7304 C.ar    1  UNL1        0.0014
     32 C         138.4140  144.7038  164.7983 C.ar    1  UNL1        0.0014
     33 C         139.9087  144.5846  164.8394 C.ar    1  UNL1        0.0196
     34 C         140.6236  143.7571  163.8126 C.ar    1  UNL1        0.1189
     35 S         142.1183  143.6379  163.8537 S.O2    1  UNL1        0.0082
     36 O         142.2227  144.5332  162.6547 O.2     1  UNL1       -0.1686
     37 O         142.0139  142.7427  165.0528 O.2     1  UNL1       -0.1686
     38 C         143.6130  143.5188  163.8949 C.3     1  UNL1        0.1340
     39 C         144.3202  143.4027  165.2127 C.3     1  UNL1        0.0257
     40 C         144.4005  143.5156  162.6183 C.3     1  UNL1        0.0257
@<TRIPOS>BOND
     1    25    26    1
     2    26    10    1
     3    10    11   ar
     4    11    12   ar
     5    12    13   ar
     6    13    14   ar
     7    14    15   ar
     8    15     8    1
     9     8     1    1
    10     1     2   ar
    11     2     3   ar
    12     3     4   ar
    13     4     5    1
    14     4     6   ar
    15     6    27    1
    16    27    29    1
    17    29    30   ar
    18    30    31   ar
    19    31    32   ar
    20    32    33   ar
    21    33    34   ar
    22    34    35    1
    23    35    36    2
    24    35    37    2
    25    35    38    1
    26    38    39    1
    27    38    40    1
    28     6     7   ar
    29    13    16    1
    30    16    17    1
    31    17    18    1
    32    18    19    1
    33    18    20    1
    34    20    21    1
    35    20    22    1
    36    15    10   ar
    37     7     1   ar
    38    20    12    1
    39    34    29   ar
    40     8     9    1
    41    27    28    1
    42    19    23    1
    43    19    24    1
@<TRIPOS>MOLECULE
*****
 40 43 0 0 0
SMALL
GASTEIGER

@<TRIPOS>ATOM
      1 C         140.9141  138.8707  163.2032 C.ar    1  UNL1        0.2220
      2 N         140.1868  138.0186  162.2057 N.ar    1  UNL1       -0.2110
      3 C         139.6048  138.6406  160.9710 C.ar    1  UNL1        0.1160
      4 C         139.7500  140.1146  160.7339 C.ar    1  UNL1        0.1085
      5 CL        139.1680  140.7366  159.4993 Cl      1  UNL1       -0.0777
      6 C         140.4773  140.9667  161.7315 C.ar    1  UNL1        0.1472
      7 N         141.0593  140.3447  162.9661 N.ar    1  UNL1       -0.1976
      8 N         141.4962  138.2488  164.4379 N.pl3   1  UNL1       -0.2801
      9 H         141.8506  137.3308  164.4064 H       1  UNL1        0.1552
     10 C         142.8159  139.6750  166.1625 C.ar    1  UNL1        0.1517
     11 C         142.8579  140.4517  167.4450 C.ar    1  UNL1        0.0336
     12 C         141.6221  140.5787  168.2857 C.ar    1  UNL1       -0.0224
     13 C         140.3443  139.9292  167.8437 C.ar    1  UNL1       -0.0246
     14 C         140.3024  139.1525  166.5612 C.ar    1  UNL1        0.0132
     15 C         141.5382  139.0255  165.7205 C.ar    1  UNL1        0.0846
     16 C         139.1085  140.0562  168.6844 C.3     1  UNL1        0.0275
     17 C         139.1505  140.8329  169.9669 C.3     1  UNL1        0.0205
     18 C         140.4283  141.4825  170.4089 C.3     1  UNL1        0.0548
     19 N         140.4702  142.2591  171.6915 N.3     1  UNL1       -0.3219
     20 C         141.6641  141.3554  169.5683 C.3     1  UNL1        0.0317
     21 C         143.0859  141.5177  169.1189 C.3     1  UNL1        0.0057
     22 C         142.1998  142.1884  170.6948 C.3     1  UNL1        0.0057
     23 H         139.5494  142.2417  172.1298 H       1  UNL1        0.1188
     24 H         140.7355  143.2244  171.4959 H       1  UNL1        0.1188
     25 C         144.3540  140.5763  164.2725 C.3     1  UNL1        0.2525
     26 O         144.0517  139.5480  165.3218 O.3     1  UNL1       -0.4702
     27 N         140.6225  142.4407  161.4944 N.pl3   1  UNL1       -0.2961
     28 H         139.9724  142.9144  160.9267 H       1  UNL1        0.1537
     29 C         141.7582  143.1930  162.1222 C.ar    1  UNL1        0.0667
     30 C         143.1538  143.0160  161.6017 C.ar    1  UNL1        0.0159
     31 C         144.2895  143.7683  162.2295 C.ar    1  UNL1        0.0014
     32 C         144.0296  144.6977  163.3779 C.ar    1  UNL1        0.0014
     33 C         142.6340  144.8748  163.8984 C.ar    1  UNL1        0.0196
     34 C         141.4983  144.1224  163.2705 C.ar    1  UNL1        0.1189
     35 S         140.1026  144.2994  163.7910 S.O2    1  UNL1        0.0082
     36 O         139.7893  145.2103  162.6411 O.2     1  UNL1       -0.1686
     37 O         140.4159  143.3886  164.9409 O.2     1  UNL1       -0.1686
     38 C         138.7070  144.4765  164.3115 C.3     1  UNL1        0.1340
     39 C         137.5337  144.1120  163.4509 C.3     1  UNL1        0.0257
     40 C         138.4847  145.0181  165.6925 C.3     1  UNL1        0.0257
@<TRIPOS>BOND
     1    25    26    1
     2    26    10    1
     3    10    11   ar
     4    11    12   ar
     5    12    13   ar
     6    13    14   ar
     7    14    15   ar
     8    15     8    1
     9     8     1    1
    10     1     2   ar
    11     2     3   ar
    12     3     4   ar
    13     4     5    1
    14     4     6   ar
    15     6    27    1
    16    27    29    1
    17    29    30   ar
    18    30    31   ar
    19    31    32   ar
    20    32    33   ar
    21    33    34   ar
    22    34    35    1
    23    35    36    2
    24    35    37    2
    25    35    38    1
    26    38    39    1
    27    38    40    1
    28     6     7   ar
    29    13    16    1
    30    16    17    1
    31    17    18    1
    32    18    19    1
    33    18    20    1
    34    20    21    1
    35    20    22    1
    36    15    10   ar
    37     7     1   ar
    38    20    12    1
    39    34    29   ar
    40     8     9    1
    41    27    28    1
    42    19    23    1
    43    19    24    1
@<TRIPOS>MOLECULE
*****
 40 43 0 0 0
SMALL
GASTEIGER

@<TRIPOS>ATOM
      1 C         140.5824  138.7920  162.9949 C.ar    1  UNL1        0.2220
      2 N         140.1793  137.8220  161.9241 N.ar    1  UNL1       -0.2110
      3 C         139.5072  138.3172  160.6779 C.ar    1  UNL1        0.1160
      4 C         139.2383  139.7825  160.5025 C.ar    1  UNL1        0.1085
      5 CL        138.5662  140.2777  159.2563 Cl      1  UNL1       -0.0777
      6 C         139.6414  140.7525  161.5733 C.ar    1  UNL1        0.1472
      7 N         140.3135  140.2572  162.8195 N.ar    1  UNL1       -0.1976
      8 N         141.2545  138.2968  164.2412 N.pl3   1  UNL1       -0.2801
      9 H         141.6555  137.3979  164.2602 H       1  UNL1        0.1552
     10 C         142.4795  140.0956  165.6603 C.ar    1  UNL1        0.1517
     11 C         142.5405  140.9700  166.8775 C.ar    1  UNL1        0.0336
     12 C         141.4376  140.9200  167.8929 C.ar    1  UNL1       -0.0224
     13 C         140.2737  139.9956  167.6911 C.ar    1  UNL1       -0.0246
     14 C         140.2126  139.1212  166.4739 C.ar    1  UNL1        0.0132
     15 C         141.3155  139.1712  165.4584 C.ar    1  UNL1        0.0846
     16 C         139.1707  139.9456  168.7065 C.3     1  UNL1        0.0275
     17 C         139.2318  140.8200  169.9238 C.3     1  UNL1        0.0205
     18 C         140.3957  141.7444  170.1256 C.3     1  UNL1        0.0548
     19 N         140.4567  142.6188  171.3429 N.3     1  UNL1       -0.3219
     20 C         141.4986  141.7944  169.1102 C.3     1  UNL1        0.0317
     21 C         142.7769  142.1966  168.4362 C.3     1  UNL1        0.0057
     22 C         142.0036  142.8085  170.0934 C.3     1  UNL1        0.0057
     23 H         139.6315  142.4563  171.9199 H       1  UNL1        0.1188
     24 H         140.4846  143.5976  171.0573 H       1  UNL1        0.1188
     25 C         144.7393  139.1964  164.7468 C.3     1  UNL1        0.2525
     26 O         143.5824  140.1456  164.6448 O.3     1  UNL1       -0.4702
     27 N         139.3724  142.2177  161.3979 N.pl3   1  UNL1       -0.2961
     28 H         139.3568  142.6108  160.4954 H       1  UNL1        0.1537
     29 C         139.1274  143.0842  162.5975 C.ar    1  UNL1        0.0667
     30 C         137.7646  143.1316  163.2226 C.ar    1  UNL1        0.0159
     31 C         137.5196  143.9980  164.4223 C.ar    1  UNL1        0.0014
     32 C         138.6372  144.8170  164.9969 C.ar    1  UNL1        0.0014
     33 C         139.9999  144.7696  164.3718 C.ar    1  UNL1        0.0196
     34 C         140.2450  143.9031  163.1721 C.ar    1  UNL1        0.1189
     35 S         141.6077  143.8557  162.5470 S.O2    1  UNL1        0.0082
     36 O         141.1320  144.7516  161.4419 O.2     1  UNL1       -0.1686
     37 O         142.0834  142.9598  163.6520 O.2     1  UNL1       -0.1686
     38 C         142.9704  143.8082  161.9219 C.3     1  UNL1        0.1340
     39 C         143.1601  143.1540  160.5854 C.3     1  UNL1        0.0257
     40 C         144.1434  144.4148  162.6332 C.3     1  UNL1        0.0257
@<TRIPOS>BOND
     1    25    26    1
     2    26    10    1
     3    10    11   ar
     4    11    12   ar
     5    12    13   ar
     6    13    14   ar
     7    14    15   ar
     8    15     8    1
     9     8     1    1
    10     1     2   ar
    11     2     3   ar
    12     3     4   ar
    13     4     5    1
    14     4     6   ar
    15     6    27    1
    16    27    29    1
    17    29    30   ar
    18    30    31   ar
    19    31    32   ar
    20    32    33   ar
    21    33    34   ar
    22    34    35    1
    23    35    36    2
    24    35    37    2
    25    35    38    1
    26    38    39    1
    27    38    40    1
    28     6     7   ar
    29    13    16    1
    30    16    17    1
    31    17    18    1
    32    18    19    1
    33    18    20    1
    34    20    21    1
    35    20    22    1
    36    15    10   ar
    37     7     1   ar
    38    20    12    1
    39    34    29   ar
    40     8     9    1
    41    27    28    1
    42    19    23    1
    43    19    24    1
@<TRIPOS>MOLECULE
*****
 40 43 0 0 0
SMALL
GASTEIGER

@<TRIPOS>ATOM
      1 C         143.4153  139.1599  160.6933 C.ar    1  UNL1        0.2220
      2 N         143.3451  138.6821  159.2732 N.ar    1  UNL1       -0.2110
      3 C         143.4177  139.6685  158.1455 C.ar    1  UNL1        0.1160
      4 C         143.5605  141.1328  158.4381 C.ar    1  UNL1        0.1085
      5 CL        143.6331  142.1193  157.3104 Cl      1  UNL1       -0.0777
      6 C         143.6308  141.6106  159.8582 C.ar    1  UNL1        0.1472
      7 N         143.5582  140.6241  160.9858 N.ar    1  UNL1       -0.1976
      8 N         143.3428  138.1734  161.8210 N.pl3   1  UNL1       -0.2801
      9 H         143.8989  137.3612  161.8011 H       1  UNL1        0.1552
     10 C         140.9621  138.1052  162.8592 C.ar    1  UNL1        0.1517
     11 C         140.0422  138.3562  164.0171 C.ar    1  UNL1        0.0336
     12 C         140.5831  138.9262  165.2948 C.ar    1  UNL1       -0.0224
     13 C         142.0438  139.2453  165.4146 C.ar    1  UNL1       -0.0246
     14 C         142.9637  138.9944  164.2566 C.ar    1  UNL1        0.0132
     15 C         142.4228  138.4243  162.9790 C.ar    1  UNL1        0.0846
     16 C         142.5847  139.8154  166.6923 C.3     1  UNL1        0.0275
     17 C         141.6648  140.0664  167.8502 C.3     1  UNL1        0.0205
     18 C         140.2040  139.7472  167.7304 C.3     1  UNL1        0.0548
     19 N         139.2841  139.9982  168.8884 N.3     1  UNL1       -0.3219
     20 C         139.6631  139.1772  166.4528 C.3     1  UNL1        0.0317
     21 C         138.6848  138.6280  165.4571 C.3     1  UNL1        0.0057
     22 C         138.4035  139.2374  167.2649 C.3     1  UNL1        0.0057
     23 H         139.8165  140.3842  169.6681 H       1  UNL1        0.1188
     24 H         138.8503  139.1205  169.1744 H       1  UNL1        0.1188
     25 C         139.6925  138.4204  160.6145 C.3     1  UNL1        0.2525
     26 O         140.4212  137.5351  161.5815 O.3     1  UNL1       -0.4702
     27 N         143.7736  143.0749  160.1507 N.pl3   1  UNL1       -0.2961
     28 H         144.6408  143.5213  160.0166 H       1  UNL1        0.1537
     29 C         142.5953  143.8589  160.6475 C.ar    1  UNL1        0.0667
     30 C         141.5819  144.3867  159.6757 C.ar    1  UNL1        0.0159
     31 C         140.4036  145.1707  160.1725 C.ar    1  UNL1        0.0014
     32 C         140.2387  145.4269  161.6413 C.ar    1  UNL1        0.0014
     33 C         141.2520  144.8991  162.6131 C.ar    1  UNL1        0.0196
     34 C         142.4304  144.1151  162.1162 C.ar    1  UNL1        0.1189
     35 S         143.4438  143.5873  163.0881 S.O2    1  UNL1        0.0082
     36 O         142.4491  142.5762  163.5762 O.2     1  UNL1       -0.1686
     37 O         144.4385  144.5984  162.6000 O.2     1  UNL1       -0.1686
     38 C         144.4571  143.0595  164.0600 C.3     1  UNL1        0.1340
     39 C         144.5048  143.5968  165.4597 C.3     1  UNL1        0.0257
     40 C         145.4228  141.9945  163.6322 C.3     1  UNL1        0.0257
@<TRIPOS>BOND
     1    25    26    1
     2    26    10    1
     3    10    11   ar
     4    11    12   ar
     5    12    13   ar
     6    13    14   ar
     7    14    15   ar
     8    15     8    1
     9     8     1    1
    10     1     2   ar
    11     2     3   ar
    12     3     4   ar
    13     4     5    1
    14     4     6   ar
    15     6    27    1
    16    27    29    1
    17    29    30   ar
    18    30    31   ar
    19    31    32   ar
    20    32    33   ar
    21    33    34   ar
    22    34    35    1
    23    35    36    2
    24    35    37    2
    25    35    38    1
    26    38    39    1
    27    38    40    1
    28     6     7   ar
    29    13    16    1
    30    16    17    1
    31    17    18    1
    32    18    19    1
    33    18    20    1
    34    20    21    1
    35    20    22    1
    36    15    10   ar
    37     7     1   ar
    38    20    12    1
    39    34    29   ar
    40     8     9    1
    41    27    28    1
    42    19    23    1
    43    19    24    1
@<TRIPOS>MOLECULE
*****
 40 43 0 0 0
SMALL
GASTEIGER

@<TRIPOS>ATOM
      1 C         143.1182  140.5998  162.8915 C.ar    1  UNL1        0.2220
      2 N         144.1318  140.4712  161.7932 N.ar    1  UNL1       -0.2110
      3 C         144.0745  141.3894  160.6084 C.ar    1  UNL1        0.1160
      4 C         143.0036  142.4362  160.5220 C.ar    1  UNL1        0.1085
      5 CL        142.9464  143.3544  159.3372 Cl      1  UNL1       -0.0777
      6 C         141.9901  142.5648  161.6202 C.ar    1  UNL1        0.1472
      7 N         142.0474  141.6466  162.8050 N.ar    1  UNL1       -0.1976
      8 N         143.1755  139.6816  164.0762 N.pl3   1  UNL1       -0.2801
      9 H         143.6866  138.8418  164.0239 H       1  UNL1        0.1552
     10 C         141.1345  139.4048  165.6599 C.ar    1  UNL1        0.1517
     11 C         140.4131  139.7662  166.9243 C.ar    1  UNL1        0.0336
     12 C         141.0110  140.7657  167.8696 C.ar    1  UNL1       -0.0224
     13 C         142.3304  141.4038  167.5504 C.ar    1  UNL1       -0.0246
     14 C         143.0519  141.0424  166.2860 C.ar    1  UNL1        0.0132
     15 C         142.4539  140.0429  165.3407 C.ar    1  UNL1        0.0846
     16 C         142.9283  142.4033  168.4957 C.3     1  UNL1        0.0275
     17 C         142.2069  142.7646  169.7601 C.3     1  UNL1        0.0205
     18 C         140.8874  142.1265  170.0794 C.3     1  UNL1        0.0548
     19 N         140.1660  142.4878  171.3438 N.3     1  UNL1       -0.3219
     20 C         140.2895  141.1270  169.1341 C.3     1  UNL1        0.0317
     21 C         139.3246  140.1332  168.5586 C.3     1  UNL1        0.0057
     22 C         139.2329  141.1432  170.1987 C.3     1  UNL1        0.0057
     23 H         140.7121  143.1759  171.8621 H       1  UNL1        0.1188
     24 H         140.0417  141.6520  171.9151 H       1  UNL1        0.1188
     25 C         139.0723  138.0880  164.7863 C.3     1  UNL1        0.2525
     26 O         140.5366  138.4053  164.7146 O.3     1  UNL1       -0.4702
     27 N         140.9193  143.6117  161.5338 N.pl3   1  UNL1       -0.2961
     28 H         140.8827  144.2155  160.7570 H       1  UNL1        0.1537
     29 C         139.9042  143.7387  162.6308 C.ar    1  UNL1        0.0667
     30 C         140.1368  144.6976  163.7606 C.ar    1  UNL1        0.0159
     31 C         139.1218  144.8246  164.8576 C.ar    1  UNL1        0.0014
     32 C         137.8741  143.9925  164.8249 C.ar    1  UNL1        0.0014
     33 C         137.6414  143.0336  163.6952 C.ar    1  UNL1        0.0196
     34 C         138.6566  142.9067  162.5981 C.ar    1  UNL1        0.1189
     35 S         138.4240  141.9478  161.4683 S.O2    1  UNL1        0.0082
     36 O         138.1522  143.0995  160.5466 O.2     1  UNL1       -0.1686
     37 O         138.6957  140.7960  162.3900 O.2     1  UNL1       -0.1686
     38 C         138.1913  140.9888  160.3386 C.3     1  UNL1        0.1340
     39 C         138.7234  141.2982  158.9706 C.3     1  UNL1        0.0257
     40 C         137.4268  139.7205  160.5767 C.3     1  UNL1        0.0257
@<TRIPOS>BOND
     1    25    26    1
     2    26    10    1
     3    10    11   ar
     4    11    12   ar
     5    12    13   ar
     6    13    14   ar
     7    14    15   ar
     8    15     8    1
     9     8     1    1
    10     1     2   ar
    11     2     3   ar
    12     3     4   ar
    13     4     5    1
    14     4     6   ar
    15     6    27    1
    16    27    29    1
    17    29    30   ar
    18    30    31   ar
    19    31    32   ar
    20    32    33   ar
    21    33    34   ar
    22    34    35    1
    23    35    36    2
    24    35    37    2
    25    35    38    1
    26    38    39    1
    27    38    40    1
    28     6     7   ar
    29    13    16    1
    30    16    17    1
    31    17    18    1
    32    18    19    1
    33    18    20    1
    34    20    21    1
    35    20    22    1
    36    15    10   ar
    37     7     1   ar
    38    20    12    1
    39    34    29   ar
    40     8     9    1
    41    27    28    1
    42    19    23    1
    43    19    24    1
@<TRIPOS>MOLECULE
*****
 40 43 0 0 0
SMALL
GASTEIGER

@<TRIPOS>ATOM
      1 C         140.8429  139.0793  163.0687 C.ar    1  UNL1        0.2220
      2 N         141.0520  137.9127  162.1491 N.ar    1  UNL1       -0.2110
      3 C         141.8156  138.0928  160.8707 C.ar    1  UNL1        0.1160
      4 C         142.3702  139.4396  160.5119 C.ar    1  UNL1        0.1085
      5 CL        143.1339  139.6198  159.2335 Cl      1  UNL1       -0.0777
      6 C         142.1611  140.6061  161.4314 C.ar    1  UNL1        0.1472
      7 N         141.3975  140.4259  162.7098 N.ar    1  UNL1       -0.1976
      8 N         140.0792  138.8991  164.3471 N.pl3   1  UNL1       -0.2801
      9 H         139.3787  138.2101  164.4091 H       1  UNL1        0.1552
     10 C         139.6755  141.0807  165.6989 C.ar    1  UNL1        0.1517
     11 C         139.9791  141.9503  166.8828 C.ar    1  UNL1        0.0336
     12 C         140.9900  141.5078  167.8988 C.ar    1  UNL1       -0.0224
     13 C         141.6974  140.1958  167.7309 C.ar    1  UNL1       -0.0246
     14 C         141.3937  139.3262  166.5470 C.ar    1  UNL1        0.0132
     15 C         140.3828  139.7687  165.5310 C.ar    1  UNL1        0.0846
     16 C         142.7083  139.7533  168.7469 C.3     1  UNL1        0.0275
     17 C         143.0119  140.6228  169.9307 C.3     1  UNL1        0.0205
     18 C         142.3046  141.9350  170.0987 C.3     1  UNL1        0.0548
     19 N         142.6082  142.8045  171.2826 N.3     1  UNL1       -0.3219
     20 C         141.2937  142.3774  169.0827 C.3     1  UNL1        0.0317
     21 C         140.2640  143.2240  168.3950 C.3     1  UNL1        0.0057
     22 C         141.2397  143.5410  170.0278 C.3     1  UNL1        0.0057
     23 H         143.3130  142.3522  171.8648 H       1  UNL1        0.1188
     24 H         141.7575  142.9466  171.8272 H       1  UNL1        0.1188
     25 C         138.8534  142.8195  163.9523 C.3     1  UNL1        0.2525
     26 O         138.6645  141.5232  164.6829 O.3     1  UNL1       -0.4702
     27 N         142.7158  141.9529  161.0725 N.pl3   1  UNL1       -0.2961
     28 H         143.5741  142.0205  160.5951 H       1  UNL1        0.1537
     29 C         141.9625  143.1966  161.4409 C.ar    1  UNL1        0.0667
     30 C         140.8431  143.6817  160.5681 C.ar    1  UNL1        0.0159
     31 C         140.0899  144.9254  160.9365 C.ar    1  UNL1        0.0014
     32 C         140.4560  145.6841  162.1777 C.ar    1  UNL1        0.0014
     33 C         141.5754  145.1990  163.0504 C.ar    1  UNL1        0.0196
     34 C         142.3287  143.9552  162.6820 C.ar    1  UNL1        0.1189
     35 S         143.4481  143.4701  163.5547 S.O2    1  UNL1        0.0082
     36 O         144.4429  143.8996  162.5174 O.2     1  UNL1       -0.1686
     37 O         142.4532  143.0406  164.5919 O.2     1  UNL1       -0.1686
     38 C         144.5674  142.9850  164.4274 C.3     1  UNL1        0.1340
     39 C         144.7433  143.5509  165.8054 C.3     1  UNL1        0.0257
     40 C         145.5109  141.9340  163.9222 C.3     1  UNL1        0.0257
@<TRIPOS>BOND
     1    25    26    1
     2    26    10    1
     3    10    11   ar
     4    11    12   ar
     5    12    13   ar
     6    13    14   ar
     7    14    15   ar
     8    15     8    1
     9     8     1    1
    10     1     2   ar
    11     2     3   ar
    12     3     4   ar
    13     4     5    1
    14     4     6   ar
    15     6    27    1
    16    27    29    1
    17    29    30   ar
    18    30    31   ar
    19    31    32   ar
    20    32    33   ar
    21    33    34   ar
    22    34    35    1
    23    35    36    2
    24    35    37    2
    25    35    38    1
    26    38    39    1
    27    38    40    1
    28     6     7   ar
    29    13    16    1
    30    16    17    1
    31    17    18    1
    32    18    19    1
    33    18    20    1
    34    20    21    1
    35    20    22    1
    36    15    10   ar
    37     7     1   ar
    38    20    12    1
    39    34    29   ar
    40     8     9    1
    41    27    28    1
    42    19    23    1
    43    19    24    1
@<TRIPOS>MOLECULE
*****
 40 43 0 0 0
SMALL
GASTEIGER

@<TRIPOS>ATOM
      1 C         140.5732  139.1537  163.2557 C.ar    1  UNL1        0.2220
      2 N         140.8057  137.8642  162.5254 N.ar    1  UNL1       -0.2110
      3 C         141.8960  137.7693  161.4996 C.ar    1  UNL1        0.1160
      4 C         142.7538  138.9639  161.2041 C.ar    1  UNL1        0.1085
      5 CL        143.8441  138.8691  160.1783 Cl      1  UNL1       -0.0777
      6 C         142.5212  140.2533  161.9343 C.ar    1  UNL1        0.1472
      7 N         141.4309  140.3482  162.9601 N.ar    1  UNL1       -0.1976
      8 N         139.4828  139.2486  164.2814 N.pl3   1  UNL1       -0.2801
      9 H         138.5587  139.0086  164.0412 H       1  UNL1        0.1552
     10 C         138.8440  139.4262  166.7935 C.ar    1  UNL1        0.1517
     11 C         139.1617  139.8867  168.1852 C.ar    1  UNL1        0.0336
     12 C         140.4360  140.6300  168.4567 C.ar    1  UNL1       -0.0224
     13 C         141.3925  140.9129  167.3365 C.ar    1  UNL1       -0.0246
     14 C         141.0748  140.4524  165.9448 C.ar    1  UNL1        0.0132
     15 C         139.8005  139.7090  165.6733 C.ar    1  UNL1        0.0846
     16 C         142.6668  141.6562  167.6080 C.3     1  UNL1        0.0275
     17 C         142.9845  142.1167  168.9997 C.3     1  UNL1        0.0205
     18 C         142.0279  141.8338  170.1200 C.3     1  UNL1        0.0548
     19 N         142.3457  142.2943  171.5118 N.3     1  UNL1       -0.3219
     20 C         140.7537  141.0905  169.8485 C.3     1  UNL1        0.0317
     21 C         139.4302  140.4271  170.0894 C.3     1  UNL1        0.0057
     22 C         140.6118  141.3206  171.3240 C.3     1  UNL1        0.0057
     23 H         143.2434  142.7785  171.5130 H       1  UNL1        0.1188
     24 H         142.3936  141.4877  172.1342 H       1  UNL1        0.1188
     25 C         136.9809  137.7935  167.5767 C.3     1  UNL1        0.2525
     26 O         137.5698  138.6828  166.5220 O.3     1  UNL1       -0.4702
     27 N         143.3789  141.4480  161.6388 N.pl3   1  UNL1       -0.2961
     28 H         143.8001  141.5449  160.7543 H       1  UNL1        0.1537
     29 C         143.5950  142.4949  162.6911 C.ar    1  UNL1        0.0667
     30 C         144.5603  142.2442  163.8114 C.ar    1  UNL1        0.0159
     31 C         144.7764  143.2911  164.8637 C.ar    1  UNL1        0.0014
     32 C         144.0270  144.5888  164.7956 C.ar    1  UNL1        0.0014
     33 C         143.0616  144.8395  163.6752 C.ar    1  UNL1        0.0196
     34 C         142.8456  143.7925  162.6229 C.ar    1  UNL1        0.1189
     35 S         141.8803  144.0431  161.5026 S.O2    1  UNL1        0.0082
     36 O         140.7368  143.9639  162.4701 O.2     1  UNL1       -0.1686
     37 O         143.0237  144.1224  160.5350 O.2     1  UNL1       -0.1686
     38 C         140.9149  144.2938  160.3822 C.3     1  UNL1        0.1340
     39 C         140.6698  143.2317  159.3516 C.3     1  UNL1        0.0257
     40 C         140.1946  145.6065  160.2923 C.3     1  UNL1        0.0257
@<TRIPOS>BOND
     1    25    26    1
     2    26    10    1
     3    10    11   ar
     4    11    12   ar
     5    12    13   ar
     6    13    14   ar
     7    14    15   ar
     8    15     8    1
     9     8     1    1
    10     1     2   ar
    11     2     3   ar
    12     3     4   ar
    13     4     5    1
    14     4     6   ar
    15     6    27    1
    16    27    29    1
    17    29    30   ar
    18    30    31   ar
    19    31    32   ar
    20    32    33   ar
    21    33    34   ar
    22    34    35    1
    23    35    36    2
    24    35    37    2
    25    35    38    1
    26    38    39    1
    27    38    40    1
    28     6     7   ar
    29    13    16    1
    30    16    17    1
    31    17    18    1
    32    18    19    1
    33    18    20    1
    34    20    21    1
    35    20    22    1
    36    15    10   ar
    37     7     1   ar
    38    20    12    1
    39    34    29   ar
    40     8     9    1
    41    27    28    1
    42    19    23    1
    43    19    24    1
