@<TRIPOS>MOLECULE
*****
 34 38 0 0 0
SMALL
GASTEIGER

@<TRIPOS>ATOM
      1 N         139.6648  138.0097  163.9736 N.3     1  UNL1       -0.2712
      2 C         141.0857  137.5323  163.9174 C.3     1  UNL1        0.0738
      3 C         141.8292  138.1540  165.0622 C.3     1  UNL1        0.0372
      4 C         143.1669  138.2433  165.7350 C.3     1  UNL1        0.0245
      5 C         143.0323  139.1601  166.9145 C.3     1  UNL1        0.0909
      6 N         141.6114  139.6376  166.9707 N.pl3   1  UNL1       -0.3077
      7 C         140.8679  139.0158  165.8259 C.3     1  UNL1        0.0901
      8 C         139.5302  138.9266  165.1531 C.3     1  UNL1        0.0921
      9 C         141.0352  140.5726  167.9923 C.ar    1  UNL1        0.0517
     10 C         139.9612  140.0955  168.9245 C.ar    1  UNL1        0.0145
     11 C         139.3851  141.0305  169.9461 C.ar    1  UNL1        0.0013
     12 C         139.8828  142.4427  170.0355 C.ar    1  UNL1        0.0000
     13 C         140.9568  142.9199  169.1033 C.ar    1  UNL1        0.0051
     14 C         141.5330  141.9848  168.0817 C.ar    1  UNL1        0.0847
     15 C         142.6069  142.4619  167.1496 C.3     1  UNL1        0.4197
     16 F         143.6809  142.9390  166.2174 F       1  UNL1       -0.1658
     17 F         141.5924  142.6051  166.0541 F       1  UNL1       -0.1658
     18 F         143.6215  142.3187  168.2451 F       1  UNL1       -0.1658
     19 C         138.5706  137.6359  163.0180 C.3     1  UNL1        0.0731
     20 C         138.6392  138.0823  161.5876 C.3     1  UNL1        0.0294
     21 C         137.7622  139.2007  161.1080 C.3     1  UNL1        0.0666
     22 S         138.2561  140.1389  160.0470 S.3     1  UNL1       -0.0756
     23 C         141.0442  140.5787  161.6849 C.3     1  UNL1        0.1340
     24 N         140.1346  141.6620  161.1857 N.ar    1  UNL1       -0.2872
     25 C         138.8531  141.4598  160.4329 C.ar    1  UNL1        0.1933
     26 N         138.2733  142.8105  160.1336 N.ar    1  UNL1       -0.1221
     27 N         139.1965  143.8474  160.7014 N.ar    1  UNL1       -0.1266
     28 C         140.3469  143.1376  161.3517 C.ar    1  UNL1        0.1862
     29 C         141.5060  143.7891  162.0460 C.ar    1  UNL1        0.1362
     30 C         142.8892  143.6574  161.4809 C.ar    1  UNL1        0.1211
     31 N         144.0483  144.3089  162.1752 N.ar    1  UNL1       -0.2390
     32 C         143.8241  145.0920  163.4348 C.ar    1  UNL1        0.1195
     33 C         142.4409  145.2237  164.0000 C.ar    1  UNL1        0.1196
     34 N         141.2818  144.5722  163.3056 N.ar    1  UNL1       -0.2375
@<TRIPOS>BOND
     1    23    24    1
     2    24    25   ar
     3    25    22    1
     4    22    21    1
     5    21    20    1
     6    20    19    1
     7    19     1    1
     8     1     2    1
     9     2     3    1
    10     3     4    1
    11     4     5    1
    12     5     6    1
    13     6     9    1
    14     9    10   ar
    15    10    11   ar
    16    11    12   ar
    17    12    13   ar
    18    13    14   ar
    19    14    15    1
    20    15    16    1
    21    15    17    1
    22    15    18    1
    23     6     7    1
    24     7     8    1
    25    25    26   ar
    26    26    27   ar
    27    27    28   ar
    28    28    29    1
    29    29    30   ar
    30    30    31   ar
    31    31    32   ar
    32    32    33   ar
    33    33    34   ar
    34    28    24   ar
    35    34    29   ar
    36     8     1    1
    37     7     3    1
    38    14     9   ar
@<TRIPOS>MOLECULE
*****
 34 38 0 0 0
SMALL
GASTEIGER

@<TRIPOS>ATOM
      1 N         141.7032  143.4349  162.6728 N.3     1  UNL1       -0.2712
      2 C         140.6572  143.8017  161.6622 C.3     1  UNL1        0.0738
      3 C         139.5127  142.8436  161.8111 C.3     1  UNL1        0.0372
      4 C         138.1588  142.4782  161.2786 C.3     1  UNL1        0.0245
      5 C         137.6608  141.2934  162.0521 C.3     1  UNL1        0.0909
      6 N         138.7069  140.9266  163.0627 N.pl3   1  UNL1       -0.3077
      7 C         139.8514  141.8847  162.9138 C.3     1  UNL1        0.0901
      8 C         141.2052  142.2501  163.4463 C.3     1  UNL1        0.0921
      9 C         138.6231  139.7996  164.0491 C.ar    1  UNL1        0.0517
     10 C         137.9964  140.0243  165.3932 C.ar    1  UNL1        0.0145
     11 C         137.9127  138.8973  166.3795 C.ar    1  UNL1        0.0013
     12 C         138.4556  137.5456  166.0218 C.ar    1  UNL1        0.0000
     13 C         139.0824  137.3209  164.6776 C.ar    1  UNL1        0.0051
     14 C         139.1662  138.4478  163.6912 C.ar    1  UNL1        0.0847
     15 C         139.7929  138.2231  162.3471 C.3     1  UNL1        0.4197
     16 F         140.4196  137.9984  161.0030 F       1  UNL1       -0.1658
     17 F         141.1124  138.6931  162.8838 F       1  UNL1       -0.1658
     18 F         138.4733  137.7532  161.8104 F       1  UNL1       -0.1658
     19 C         143.0166  144.1307  162.8744 C.3     1  UNL1        0.0731
     20 C         144.2278  143.6826  162.1114 C.3     1  UNL1        0.0294
     21 C         144.6385  142.2401  162.1360 C.3     1  UNL1        0.0666
     22 S         145.2982  141.6688  163.3560 S.3     1  UNL1       -0.0756
     23 C         143.7728  142.5848  166.0917 C.3     1  UNL1        0.1340
     24 N         143.8234  141.1932  165.5340 N.ar    1  UNL1       -0.2872
     25 C         144.5245  140.7722  164.2766 C.ar    1  UNL1        0.1933
     26 N         144.3161  139.2971  164.1012 N.ar    1  UNL1       -0.1221
     27 N         143.4862  138.8065  165.2503 N.ar    1  UNL1       -0.1266
     28 C         143.1816  139.9783  166.1359 C.ar    1  UNL1        0.1862
     29 C         142.3767  139.9416  167.4011 C.ar    1  UNL1        0.1362
     30 C         140.9826  140.4949  167.4194 C.ar    1  UNL1        0.1211
     31 N         140.1776  140.4583  168.6846 N.ar    1  UNL1       -0.2390
     32 C         140.7669  139.8682  169.9315 C.ar    1  UNL1        0.1195
     33 C         142.1610  139.3149  169.9132 C.ar    1  UNL1        0.1196
     34 N         142.9659  139.3516  168.6479 N.ar    1  UNL1       -0.2375
@<TRIPOS>BOND
     1    23    24    1
     2    24    25   ar
     3    25    22    1
     4    22    21    1
     5    21    20    1
     6    20    19    1
     7    19     1    1
     8     1     2    1
     9     2     3    1
    10     3     4    1
    11     4     5    1
    12     5     6    1
    13     6     9    1
    14     9    10   ar
    15    10    11   ar
    16    11    12   ar
    17    12    13   ar
    18    13    14   ar
    19    14    15    1
    20    15    16    1
    21    15    17    1
    22    15    18    1
    23     6     7    1
    24     7     8    1
    25    25    26   ar
    26    26    27   ar
    27    27    28   ar
    28    28    29    1
    29    29    30   ar
    30    30    31   ar
    31    31    32   ar
    32    32    33   ar
    33    33    34   ar
    34    28    24   ar
    35    34    29   ar
    36     8     1    1
    37     7     3    1
    38    14     9   ar
@<TRIPOS>MOLECULE
*****
 34 38 0 0 0
SMALL
GASTEIGER

@<TRIPOS>ATOM
      1 N         138.2870  140.5557  162.6210 N.3     1  UNL1       -0.2712
      2 C         137.2883  141.4993  163.2227 C.3     1  UNL1        0.0738
      3 C         138.0441  142.5889  163.9237 C.3     1  UNL1        0.0372
      4 C         137.8940  143.8456  164.7289 C.3     1  UNL1        0.0245
      5 C         139.2670  144.3521  165.0581 C.3     1  UNL1        0.0909
      6 N         140.2657  143.4084  164.4563 N.pl3   1  UNL1       -0.3077
      7 C         139.5099  142.3188  163.7553 C.3     1  UNL1        0.0901
      8 C         139.6601  141.0621  162.9501 C.3     1  UNL1        0.0921
      9 C         141.7582  143.5326  164.5407 C.ar    1  UNL1        0.0517
     10 C         142.4959  142.9359  165.7024 C.ar    1  UNL1        0.0145
     11 C         143.9884  143.0601  165.7868 C.ar    1  UNL1        0.0013
     12 C         144.7431  143.7811  164.7096 C.ar    1  UNL1        0.0000
     13 C         144.0054  144.3779  163.5478 C.ar    1  UNL1        0.0051
     14 C         142.5129  144.2537  163.4634 C.ar    1  UNL1        0.0847
     15 C         141.7752  144.8505  162.3017 C.3     1  UNL1        0.4197
     16 F         141.0375  145.4472  161.1400 F       1  UNL1       -0.1658
     17 F         141.4415  146.0543  163.1320 F       1  UNL1       -0.1658
     18 F         142.1089  143.6466  161.4713 F       1  UNL1       -0.1658
     19 C         137.9687  139.3222  161.8291 C.3     1  UNL1        0.0731
     20 C         138.4078  137.9771  162.3271 C.3     1  UNL1        0.0294
     21 C         139.8583  137.7183  162.6085 C.3     1  UNL1        0.0666
     22 S         140.3082  137.4131  164.0064 S.3     1  UNL1       -0.0756
     23 C         141.8268  139.5678  165.9301 C.3     1  UNL1        0.1340
     24 N         140.3963  139.1328  166.0509 N.ar    1  UNL1       -0.2872
     25 C         139.6983  138.1424  165.1667 C.ar    1  UNL1        0.1933
     26 N         138.2833  138.0093  165.6463 N.ar    1  UNL1       -0.1221
     27 N         138.1068  138.9175  166.8270 N.ar    1  UNL1       -0.1266
     28 C         139.4127  139.6119  167.0771 C.ar    1  UNL1        0.1862
     29 C         139.6868  140.6101  168.1627 C.ar    1  UNL1        0.1362
     30 C         139.4264  140.2504  169.5955 C.ar    1  UNL1        0.1211
     31 N         139.7005  141.2486  170.6811 N.ar    1  UNL1       -0.2390
     32 C         140.2350  142.6065  170.3338 C.ar    1  UNL1        0.1195
     33 C         140.4954  142.9661  168.9010 C.ar    1  UNL1        0.1196
     34 N         140.2213  141.9679  167.8155 N.ar    1  UNL1       -0.2375
@<TRIPOS>BOND
     1    23    24    1
     2    24    25   ar
     3    25    22    1
     4    22    21    1
     5    21    20    1
     6    20    19    1
     7    19     1    1
     8     1     2    1
     9     2     3    1
    10     3     4    1
    11     4     5    1
    12     5     6    1
    13     6     9    1
    14     9    10   ar
    15    10    11   ar
    16    11    12   ar
    17    12    13   ar
    18    13    14   ar
    19    14    15    1
    20    15    16    1
    21    15    17    1
    22    15    18    1
    23     6     7    1
    24     7     8    1
    25    25    26   ar
    26    26    27   ar
    27    27    28   ar
    28    28    29    1
    29    29    30   ar
    30    30    31   ar
    31    31    32   ar
    32    32    33   ar
    33    33    34   ar
    34    28    24   ar
    35    34    29   ar
    36     8     1    1
    37     7     3    1
    38    14     9   ar
@<TRIPOS>MOLECULE
*****
 34 38 0 0 0
SMALL
GASTEIGER

@<TRIPOS>ATOM
      1 N         142.8897  143.1079  164.2236 N.3     1  UNL1       -0.2712
      2 C         143.7181  141.9018  163.8938 C.3     1  UNL1        0.0738
      3 C         143.4003  140.8328  164.8969 C.3     1  UNL1        0.0372
      4 C         143.7159  139.4267  165.3131 C.3     1  UNL1        0.0245
      5 C         142.8861  139.1031  166.5201 C.3     1  UNL1        0.0909
      6 N         142.0576  140.3093  166.8499 N.pl3   1  UNL1       -0.3077
      7 C         142.3754  141.3783  165.8467 C.3     1  UNL1        0.0901
      8 C         142.0599  142.7844  165.4306 C.3     1  UNL1        0.0921
      9 C         141.0826  140.4261  167.9837 C.ar    1  UNL1        0.0517
     10 C         139.7066  139.8434  167.8526 C.ar    1  UNL1        0.0145
     11 C         138.7315  139.9601  168.9865 C.ar    1  UNL1        0.0013
     12 C         139.1324  140.6595  170.2514 C.ar    1  UNL1        0.0000
     13 C         140.5085  141.2422  170.3826 C.ar    1  UNL1        0.0051
     14 C         141.4835  141.1255  169.2487 C.ar    1  UNL1        0.0847
     15 C         142.8595  141.7081  169.3798 C.3     1  UNL1        0.4197
     16 F         144.2354  142.2908  169.5109 F       1  UNL1       -0.1658
     17 F         142.3446  143.0322  168.8985 F       1  UNL1       -0.1658
     18 F         143.3744  140.3840  169.8611 F       1  UNL1       -0.1658
     19 C         142.8908  144.4092  163.4775 C.3     1  UNL1        0.0731
     20 C         141.7498  145.3689  163.6417 C.3     1  UNL1        0.0294
     21 C         140.9182  145.7557  162.4547 C.3     1  UNL1        0.0666
     22 S         139.4495  145.4515  162.4369 S.3     1  UNL1       -0.0756
     23 C         140.2991  142.4290  161.5469 C.3     1  UNL1        0.1340
     24 N         139.3305  142.7885  162.6344 N.ar    1  UNL1       -0.2872
     25 C         138.9400  144.1778  163.0435 C.ar    1  UNL1        0.1933
     26 N         137.9504  144.0697  164.1656 N.ar    1  UNL1       -0.1221
     27 N         137.7294  142.6136  164.4501 N.ar    1  UNL1       -0.1266
     28 C         138.5823  141.8217  163.5038 C.ar    1  UNL1        0.1862
     29 C         138.6714  140.3258  163.4383 C.ar    1  UNL1        0.1362
     30 C         138.0406  139.5862  162.2959 C.ar    1  UNL1        0.1211
     31 N         138.1297  138.0902  162.2305 N.ar    1  UNL1       -0.2390
     32 C         138.8497  137.3340  163.3075 C.ar    1  UNL1        0.1195
     33 C         139.4805  138.0736  164.4499 C.ar    1  UNL1        0.1196
     34 N         139.3913  139.5696  164.5152 N.ar    1  UNL1       -0.2375
@<TRIPOS>BOND
     1    23    24    1
     2    24    25   ar
     3    25    22    1
     4    22    21    1
     5    21    20    1
     6    20    19    1
     7    19     1    1
     8     1     2    1
     9     2     3    1
    10     3     4    1
    11     4     5    1
    12     5     6    1
    13     6     9    1
    14     9    10   ar
    15    10    11   ar
    16    11    12   ar
    17    12    13   ar
    18    13    14   ar
    19    14    15    1
    20    15    16    1
    21    15    17    1
    22    15    18    1
    23     6     7    1
    24     7     8    1
    25    25    26   ar
    26    26    27   ar
    27    27    28   ar
    28    28    29    1
    29    29    30   ar
    30    30    31   ar
    31    31    32   ar
    32    32    33   ar
    33    33    34   ar
    34    28    24   ar
    35    34    29   ar
    36     8     1    1
    37     7     3    1
    38    14     9   ar
@<TRIPOS>MOLECULE
*****
 34 38 0 0 0
SMALL
GASTEIGER

@<TRIPOS>ATOM
      1 N         141.9277  138.3271  162.7877 N.3     1  UNL1       -0.2712
      2 C         141.0704  137.3573  163.5457 C.3     1  UNL1        0.0738
      3 C         140.0064  138.1382  164.2586 C.3     1  UNL1        0.0372
      4 C         138.8189  138.0215  165.1676 C.3     1  UNL1        0.0245
      5 C         138.2847  139.4017  165.4120 C.3     1  UNL1        0.0909
      6 N         139.1421  140.3715  164.6540 N.pl3   1  UNL1       -0.3077
      7 C         140.2061  139.5906  163.9411 C.3     1  UNL1        0.0901
      8 C         141.3935  139.7073  163.0321 C.3     1  UNL1        0.0921
      9 C         138.9663  141.8606  164.6155 C.ar    1  UNL1        0.0517
     10 C         139.4524  142.7029  165.7575 C.ar    1  UNL1        0.0145
     11 C         139.2766  144.1921  165.7191 C.ar    1  UNL1        0.0013
     12 C         138.6147  144.8390  164.5387 C.ar    1  UNL1        0.0000
     13 C         138.1286  143.9966  163.3966 C.ar    1  UNL1        0.0051
     14 C         138.3044  142.5075  163.4350 C.ar    1  UNL1        0.0847
     15 C         137.8183  141.6652  162.2930 C.3     1  UNL1        0.4197
     16 F         137.3323  140.8229  161.1510 F       1  UNL1       -0.1658
     17 F         136.6153  141.2696  163.0969 F       1  UNL1       -0.1658
     18 F         139.0214  142.0608  161.4891 F       1  UNL1       -0.1658
     19 C         143.1113  137.9779  161.9350 C.3     1  UNL1        0.0731
     20 C         143.9592  139.0666  161.3470 C.3     1  UNL1        0.0294
     21 C         144.5206  140.1405  162.2311 C.3     1  UNL1        0.0666
     22 S         144.8823  139.8283  163.6530 S.3     1  UNL1       -0.0756
     23 C         143.4311  138.3180  166.1554 C.3     1  UNL1        0.1340
     24 N         143.4790  139.7998  165.9278 N.ar    1  UNL1       -0.2872
     25 C         144.1460  140.4941  164.7776 C.ar    1  UNL1        0.1933
     26 N         143.9476  141.9709  164.9493 N.ar    1  UNL1       -0.1221
     27 N         143.1578  142.1894  166.2057 N.ar    1  UNL1       -0.1266
     28 C         142.8682  140.8476  166.8105 C.ar    1  UNL1        0.1862
     29 C         142.1023  140.5976  168.0758 C.ar    1  UNL1        0.1362
     30 C         140.7020  140.0636  168.0118 C.ar    1  UNL1        0.1211
     31 N         139.9361  139.8135  169.2771 N.ar    1  UNL1       -0.2390
     32 C         140.5706  140.0975  170.6063 C.ar    1  UNL1        0.1195
     33 C         141.9709  140.6315  170.6703 C.ar    1  UNL1        0.1196
     34 N         142.7367  140.8815  169.4050 N.ar    1  UNL1       -0.2375
@<TRIPOS>BOND
     1    23    24    1
     2    24    25   ar
     3    25    22    1
     4    22    21    1
     5    21    20    1
     6    20    19    1
     7    19     1    1
     8     1     2    1
     9     2     3    1
    10     3     4    1
    11     4     5    1
    12     5     6    1
    13     6     9    1
    14     9    10   ar
    15    10    11   ar
    16    11    12   ar
    17    12    13   ar
    18    13    14   ar
    19    14    15    1
    20    15    16    1
    21    15    17    1
    22    15    18    1
    23     6     7    1
    24     7     8    1
    25    25    26   ar
    26    26    27   ar
    27    27    28   ar
    28    28    29    1
    29    29    30   ar
    30    30    31   ar
    31    31    32   ar
    32    32    33   ar
    33    33    34   ar
    34    28    24   ar
    35    34    29   ar
    36     8     1    1
    37     7     3    1
    38    14     9   ar
@<TRIPOS>MOLECULE
*****
 34 38 0 0 0
SMALL
GASTEIGER

@<TRIPOS>ATOM
      1 N         142.4550  138.9757  162.6916 N.3     1  UNL1       -0.2712
      2 C         143.8772  139.2519  163.0802 C.3     1  UNL1        0.0738
      3 C         144.1386  140.7143  162.8732 C.3     1  UNL1        0.0372
      4 C         145.1791  141.7889  162.9855 C.3     1  UNL1        0.0245
      5 C         144.5617  143.0807  162.5383 C.3     1  UNL1        0.0909
      6 N         143.1394  142.8045  162.1496 N.pl3   1  UNL1       -0.3077
      7 C         142.8780  141.3420  162.3566 C.3     1  UNL1        0.0901
      8 C         141.8375  140.2675  162.2443 C.3     1  UNL1        0.0921
      9 C         142.1520  143.8136  161.6429 C.ar    1  UNL1        0.0517
     10 C         142.1267  144.1725  160.1868 C.ar    1  UNL1        0.0145
     11 C         141.1393  145.1816  159.6801 C.ar    1  UNL1        0.0013
     12 C         140.1772  145.8318  160.6295 C.ar    1  UNL1        0.0000
     13 C         140.2024  145.4728  162.0858 C.ar    1  UNL1        0.0051
     14 C         141.1898  144.4637  162.5925 C.ar    1  UNL1        0.0847
     15 C         141.2150  144.1048  164.0486 C.3     1  UNL1        0.4197
     16 F         141.2403  143.7458  165.5048 F       1  UNL1       -0.1658
     17 F         142.2455  145.1671  164.2927 F       1  UNL1       -0.1658
     18 F         140.1845  143.0424  163.8047 F       1  UNL1       -0.1658
     19 C         141.7705  137.6419  162.7413 C.3     1  UNL1        0.0731
     20 C         140.8123  137.3317  163.8529 C.3     1  UNL1        0.0294
     21 C         139.3505  137.6243  163.6866 C.3     1  UNL1        0.0666
     22 S         138.7700  138.8883  164.2480 S.3     1  UNL1       -0.0756
     23 C         141.0694  140.4909  165.9196 C.3     1  UNL1        0.1340
     24 N         139.8366  139.8615  166.4975 N.ar    1  UNL1       -0.2872
     25 C         138.7797  139.1249  165.7292 C.ar    1  UNL1        0.1933
     26 N         137.7341  138.6663  166.7020 N.ar    1  UNL1       -0.1221
     27 N         138.1448  139.1195  168.0717 N.ar    1  UNL1       -0.1266
     28 C         139.4442  139.8582  167.9454 C.ar    1  UNL1        0.1862
     29 C         140.2157  140.4837  169.0694 C.ar    1  UNL1        0.1362
     30 C         139.7365  141.7640  169.6867 C.ar    1  UNL1        0.1211
     31 N         140.5080  142.3895  170.8108 N.ar    1  UNL1       -0.2390
     32 C         141.7588  141.7346  171.3175 C.ar    1  UNL1        0.1195
     33 C         142.2380  140.4543  170.7002 C.ar    1  UNL1        0.1196
     34 N         141.4664  139.8288  169.5761 N.ar    1  UNL1       -0.2375
@<TRIPOS>BOND
     1    23    24    1
     2    24    25   ar
     3    25    22    1
     4    22    21    1
     5    21    20    1
     6    20    19    1
     7    19     1    1
     8     1     2    1
     9     2     3    1
    10     3     4    1
    11     4     5    1
    12     5     6    1
    13     6     9    1
    14     9    10   ar
    15    10    11   ar
    16    11    12   ar
    17    12    13   ar
    18    13    14   ar
    19    14    15    1
    20    15    16    1
    21    15    17    1
    22    15    18    1
    23     6     7    1
    24     7     8    1
    25    25    26   ar
    26    26    27   ar
    27    27    28   ar
    28    28    29    1
    29    29    30   ar
    30    30    31   ar
    31    31    32   ar
    32    32    33   ar
    33    33    34   ar
    34    28    24   ar
    35    34    29   ar
    36     8     1    1
    37     7     3    1
    38    14     9   ar
@<TRIPOS>MOLECULE
*****
 34 38 0 0 0
SMALL
GASTEIGER

@<TRIPOS>ATOM
      1 N         141.8454  143.2905  161.6044 N.3     1  UNL1       -0.2712
      2 C         141.1609  143.0604  160.2897 C.3     1  UNL1        0.0738
      3 C         140.1553  141.9632  160.4765 C.3     1  UNL1        0.0372
      4 C         139.1108  141.1428  159.7794 C.3     1  UNL1        0.0245
      5 C         138.5282  140.1878  160.7787 C.3     1  UNL1        0.0909
      6 N         139.2128  140.4179  162.0935 N.pl3   1  UNL1       -0.3077
      7 C         140.2184  141.5152  161.9067 C.3     1  UNL1        0.0901
      8 C         141.2629  142.3355  162.6037 C.3     1  UNL1        0.0921
      9 C         138.9397  139.6804  163.3708 C.ar    1  UNL1        0.0517
     10 C         139.3507  138.2446  163.5103 C.ar    1  UNL1        0.0145
     11 C         139.0776  137.5070  164.7876 C.ar    1  UNL1        0.0013
     12 C         138.3935  138.2052  165.9253 C.ar    1  UNL1        0.0000
     13 C         137.9824  139.6411  165.7858 C.ar    1  UNL1        0.0051
     14 C         138.2555  140.3786  164.5085 C.ar    1  UNL1        0.0847
     15 C         137.8445  141.8144  164.3689 C.3     1  UNL1        0.4197
     16 F         137.4334  143.2502  164.2294 F       1  UNL1       -0.1658
     17 F         136.7612  141.4114  163.4129 F       1  UNL1       -0.1658
     18 F         138.9278  142.2176  165.3250 F       1  UNL1       -0.1658
     19 C         142.9232  144.2987  161.8727 C.3     1  UNL1        0.0731
     20 C         144.2014  143.8726  162.5320 C.3     1  UNL1        0.0294
     21 C         144.7830  142.5216  162.2380 C.3     1  UNL1        0.0666
     22 S         145.5159  141.7711  163.3101 S.3     1  UNL1       -0.0756
     23 C         143.7208  142.6847  165.8777 C.3     1  UNL1        0.1340
     24 N         143.9404  141.2759  165.4119 N.ar    1  UNL1       -0.2872
     25 C         144.7655  140.8559  164.2317 C.ar    1  UNL1        0.1933
     26 N         144.7085  139.3601  164.1349 N.ar    1  UNL1       -0.1221
     27 N         143.8481  138.8556  165.2552 N.ar    1  UNL1       -0.1266
     28 C         143.3733  140.0396  166.0445 C.ar    1  UNL1        0.1862
     29 C         142.4872  139.9951  167.2540 C.ar    1  UNL1        0.1362
     30 C         141.1170  140.6032  167.2026 C.ar    1  UNL1        0.1211
     31 N         140.2309  140.5587  168.4121 N.ar    1  UNL1       -0.2390
     32 C         140.7151  139.9060  169.6729 C.ar    1  UNL1        0.1195
     33 C         142.0853  139.2978  169.7243 C.ar    1  UNL1        0.1196
     34 N         142.9714  139.3424  168.5147 N.ar    1  UNL1       -0.2375
@<TRIPOS>BOND
     1    23    24    1
     2    24    25   ar
     3    25    22    1
     4    22    21    1
     5    21    20    1
     6    20    19    1
     7    19     1    1
     8     1     2    1
     9     2     3    1
    10     3     4    1
    11     4     5    1
    12     5     6    1
    13     6     9    1
    14     9    10   ar
    15    10    11   ar
    16    11    12   ar
    17    12    13   ar
    18    13    14   ar
    19    14    15    1
    20    15    16    1
    21    15    17    1
    22    15    18    1
    23     6     7    1
    24     7     8    1
    25    25    26   ar
    26    26    27   ar
    27    27    28   ar
    28    28    29    1
    29    29    30   ar
    30    30    31   ar
    31    31    32   ar
    32    32    33   ar
    33    33    34   ar
    34    28    24   ar
    35    34    29   ar
    36     8     1    1
    37     7     3    1
    38    14     9   ar
@<TRIPOS>MOLECULE
*****
 34 38 0 0 0
SMALL
GASTEIGER

@<TRIPOS>ATOM
      1 N         141.3642  144.6966  163.1462 N.3     1  UNL1       -0.2712
      2 C         142.6665  144.5666  162.4133 C.3     1  UNL1        0.0738
      3 C         143.5279  143.5974  163.1674 C.3     1  UNL1        0.0372
      4 C         144.8651  142.9180  163.1805 C.3     1  UNL1        0.0245
      5 C         144.9217  142.0291  164.3875 C.3     1  UNL1        0.0909
      6 N         143.6193  142.1592  165.1203 N.pl3   1  UNL1       -0.3077
      7 C         142.7579  143.1284  164.3663 C.3     1  UNL1        0.0901
      8 C         141.4207  143.8078  164.3531 C.3     1  UNL1        0.0921
      9 C         143.2442  141.4453  166.3851 C.ar    1  UNL1        0.0517
     10 C         143.1793  142.1987  167.6806 C.ar    1  UNL1        0.0145
     11 C         142.8042  141.4848  168.9453 C.ar    1  UNL1        0.0013
     12 C         142.4940  140.0176  168.9147 C.ar    1  UNL1        0.0000
     13 C         142.5589  139.2641  167.6192 C.ar    1  UNL1        0.0051
     14 C         142.9340  139.9780  166.3544 C.ar    1  UNL1        0.0847
     15 C         142.9989  139.2246  165.0590 C.3     1  UNL1        0.4197
     16 F         143.0638  138.4713  163.7636 F       1  UNL1       -0.1658
     17 F         144.4280  138.8658  165.3393 F       1  UNL1       -0.1658
     18 F         141.5696  139.5835  164.7787 F       1  UNL1       -0.1658
     19 C         140.2083  145.5634  162.7428 C.3     1  UNL1        0.0731
     20 C         139.9429  145.8320  161.2912 C.3     1  UNL1        0.0294
     21 C         140.5816  144.9729  160.2404 C.3     1  UNL1        0.0666
     22 S         139.9598  143.6606  159.8648 S.3     1  UNL1       -0.0756
     23 C         141.0295  141.1513  161.6562 C.3     1  UNL1        0.1340
     24 N         139.6506  141.7404  161.6984 N.ar    1  UNL1       -0.2872
     25 C         139.1589  142.8937  160.8750 C.ar    1  UNL1        0.1933
     26 N         137.7258  143.1457  161.2392 N.ar    1  UNL1       -0.1221
     27 N         137.3317  142.1480  162.2877 N.ar    1  UNL1       -0.1266
     28 C         138.5213  141.2794  162.5716 C.ar    1  UNL1        0.1862
     29 C         138.5725  140.1486  163.5557 C.ar    1  UNL1        0.1362
     30 C         138.7860  138.7442  163.0739 C.ar    1  UNL1        0.1211
     31 N         138.8372  137.6133  164.0581 N.ar    1  UNL1       -0.2390
     32 C         138.6750  137.8870  165.5240 C.ar    1  UNL1        0.1195
     33 C         138.4616  139.2913  166.0058 C.ar    1  UNL1        0.1196
     34 N         138.4103  140.4222  165.0215 N.ar    1  UNL1       -0.2375
@<TRIPOS>BOND
     1    23    24    1
     2    24    25   ar
     3    25    22    1
     4    22    21    1
     5    21    20    1
     6    20    19    1
     7    19     1    1
     8     1     2    1
     9     2     3    1
    10     3     4    1
    11     4     5    1
    12     5     6    1
    13     6     9    1
    14     9    10   ar
    15    10    11   ar
    16    11    12   ar
    17    12    13   ar
    18    13    14   ar
    19    14    15    1
    20    15    16    1
    21    15    17    1
    22    15    18    1
    23     6     7    1
    24     7     8    1
    25    25    26   ar
    26    26    27   ar
    27    27    28   ar
    28    28    29    1
    29    29    30   ar
    30    30    31   ar
    31    31    32   ar
    32    32    33   ar
    33    33    34   ar
    34    28    24   ar
    35    34    29   ar
    36     8     1    1
    37     7     3    1
    38    14     9   ar
@<TRIPOS>MOLECULE
*****
 34 38 0 0 0
SMALL
GASTEIGER

@<TRIPOS>ATOM
      1 N         143.6707  142.5413  163.3253 N.3     1  UNL1       -0.2712
      2 C         144.8329  141.6265  163.5753 C.3     1  UNL1        0.0738
      3 C         144.3334  140.4442  164.3516 C.3     1  UNL1        0.0372
      4 C         144.7430  139.1481  164.9859 C.3     1  UNL1        0.0245
      5 C         143.5253  138.5311  165.6077 C.3     1  UNL1        0.0909
      6 N         142.3631  139.4460  165.3577 N.pl3   1  UNL1       -0.3077
      7 C         142.8626  140.6283  164.5814 C.3     1  UNL1        0.0901
      8 C         142.4530  141.9244  163.9471 C.3     1  UNL1        0.0921
      9 C         140.9497  139.2185  165.8054 C.ar    1  UNL1        0.0517
     10 C         140.4360  139.8963  167.0410 C.ar    1  UNL1        0.0145
     11 C         139.0226  139.6687  167.4887 C.ar    1  UNL1        0.0013
     12 C         138.1228  138.7634  166.7008 C.ar    1  UNL1        0.0000
     13 C         138.6365  138.0855  165.4652 C.ar    1  UNL1        0.0051
     14 C         140.0499  138.3131  165.0175 C.ar    1  UNL1        0.0847
     15 C         140.5636  137.6353  163.7819 C.3     1  UNL1        0.4197
     16 F         141.0773  136.9574  162.5464 F       1  UNL1       -0.1658
     17 F         140.0267  138.7570  162.9433 F       1  UNL1       -0.1658
     18 F         141.1006  136.5134  164.6205 F       1  UNL1       -0.1658
     19 C         143.7179  143.8443  162.5837 C.3     1  UNL1        0.0731
     20 C         143.0668  145.0633  163.1669 C.3     1  UNL1        0.0294
     21 C         141.6134  145.0330  163.5368 C.3     1  UNL1        0.0666
     22 S         140.5804  145.5070  162.5580 S.3     1  UNL1       -0.0756
     23 C         141.2116  143.7943  159.8529 C.3     1  UNL1        0.1340
     24 N         139.9490  143.7335  160.6604 N.ar    1  UNL1       -0.2872
     25 C         139.6588  144.5208  161.9038 C.ar    1  UNL1        0.1933
     26 N         138.2853  144.1487  162.3781 N.ar    1  UNL1       -0.1221
     27 N         137.7265  143.1314  161.4278 N.ar    1  UNL1       -0.1266
     28 C         138.7547  142.8748  160.3662 C.ar    1  UNL1        0.1862
     29 C         138.6135  141.9261  159.2129 C.ar    1  UNL1        0.1362
     30 C         138.9845  140.4823  159.3796 C.ar    1  UNL1        0.1211
     31 N         138.8432  139.5336  158.2264 N.ar    1  UNL1       -0.2390
     32 C         138.3309  140.0288  156.9063 C.ar    1  UNL1        0.1195
     33 C         137.9599  141.4726  156.7396 C.ar    1  UNL1        0.1196
     34 N         138.1012  142.4213  157.8930 N.ar    1  UNL1       -0.2375
@<TRIPOS>BOND
     1    23    24    1
     2    24    25   ar
     3    25    22    1
     4    22    21    1
     5    21    20    1
     6    20    19    1
     7    19     1    1
     8     1     2    1
     9     2     3    1
    10     3     4    1
    11     4     5    1
    12     5     6    1
    13     6     9    1
    14     9    10   ar
    15    10    11   ar
    16    11    12   ar
    17    12    13   ar
    18    13    14   ar
    19    14    15    1
    20    15    16    1
    21    15    17    1
    22    15    18    1
    23     6     7    1
    24     7     8    1
    25    25    26   ar
    26    26    27   ar
    27    27    28   ar
    28    28    29    1
    29    29    30   ar
    30    30    31   ar
    31    31    32   ar
    32    32    33   ar
    33    33    34   ar
    34    28    24   ar
    35    34    29   ar
    36     8     1    1
    37     7     3    1
    38    14     9   ar
