@<TRIPOS>MOLECULE
*****
 32 35 0 0 0
SMALL
GASTEIGER

@<TRIPOS>ATOM
      1 C         138.6994  138.8031  165.4806 C.ar    1  UNL1        0.0536
      2 C         138.1024  139.7822  164.5138 C.ar    1  UNL1        0.0043
      3 C         138.3617  139.6375  163.0435 C.ar    1  UNL1       -0.0005
      4 C         139.2182  138.5137  162.5401 C.ar    1  UNL1        0.0212
      5 C         139.8152  137.5345  163.5069 C.ar    1  UNL1       -0.0005
      6 C         139.5559  137.6793  164.9772 C.ar    1  UNL1        0.0043
      7 C         140.3746  142.2918  169.2586 C.3     1  UNL1        0.1025
      8 C         140.6339  142.1471  167.7883 C.3     1  UNL1        0.0327
      9 C         139.9891  141.0325  167.0191 C.3     1  UNL1        0.0943
     10 N         139.0849  140.0625  167.7202 N.am    1  UNL1       -0.2761
     11 C         138.4401  138.9478  166.9510 C.2     1  UNL1        0.2490
     12 O         137.5359  137.9778  167.6521 O.2     1  UNL1       -0.2699
     13 C         138.8255  140.2071  169.1904 C.3     1  UNL1        0.0943
     14 C         139.4704  141.3218  169.9597 C.3     1  UNL1        0.0327
     15 C         141.0194  143.4065  170.0278 C.2     1  UNL1        0.3167
     16 O         140.3082  144.7177  170.1865 O.2     1  UNL1       -0.2501
     17 C         143.4190  142.4177  169.9081 C.3     1  UNL1        0.2556
     18 O         142.3754  143.2101  170.6383 O.3     1  UNL1       -0.4444
     19 C         139.4775  138.3689  161.0697 C.3     1  UNL1        0.2320
     20 O         140.8822  138.4264  160.5467 O.3     1  UNL1       -0.4706
     21 C         141.8425  139.4444  161.0868 C.ar    1  UNL1        0.1397
     22 C         143.1760  139.0094  161.6184 C.ar    1  UNL1        0.0385
     23 C         144.1363  140.0273  162.1584 C.ar    1  UNL1        0.0228
     24 C         143.7631  141.4801  162.1668 C.ar    1  UNL1        0.0894
     25 N         144.4977  142.7024  162.6323 N.ar    1  UNL1       -0.2245
     26 C         143.6181  143.8927  162.3883 C.ar    1  UNL1        0.1567
     27 N         143.9571  145.3192  162.7050 N.pl3   1  UNL1       -0.3375
     28 S         142.3400  143.4061  161.7721 S.2     1  UNL1       -0.0519
     29 C         142.4297  141.9151  161.6352 C.ar    1  UNL1        0.0527
     30 C         141.4694  140.8972  161.0952 C.ar    1  UNL1        0.0450
     31 H         144.8263  145.5402  163.1111 H       1  UNL1        0.1442
     32 H         143.3103  146.0345  162.5067 H       1  UNL1        0.1442
@<TRIPOS>BOND
     1    17    18    1
     2    18    15    1
     3    15    16    2
     4    15     7    1
     5     7     8    1
     6     8     9    1
     7     9    10    1
     8    10    11   am
     9    11    12    2
    10    11     1    1
    11     1     2   ar
    12     2     3   ar
    13     3     4   ar
    14     4    19    1
    15    19    20    1
    16    20    21    1
    17    21    22   ar
    18    22    23   ar
    19    23    24   ar
    20    24    25   ar
    21    25    26   ar
    22    26    27    1
    23    26    28   ar
    24    28    29   ar
    25    29    30   ar
    26     4     5   ar
    27     5     6   ar
    28    10    13    1
    29    13    14    1
    30    14     7    1
    31     6     1   ar
    32    30    21   ar
    33    29    24   ar
    34    27    31    1
    35    27    32    1
@<TRIPOS>MOLECULE
*****
 32 35 0 0 0
SMALL
GASTEIGER

@<TRIPOS>ATOM
      1 C         138.5184  138.9610  165.4122 C.ar    1  UNL1        0.0536
      2 C         137.8781  139.9923  164.5312 C.ar    1  UNL1        0.0043
      3 C         137.9857  139.8758  163.0397 C.ar    1  UNL1       -0.0005
      4 C         138.7336  138.7278  162.4291 C.ar    1  UNL1        0.0212
      5 C         139.3739  137.6964  163.3101 C.ar    1  UNL1       -0.0005
      6 C         139.2663  137.8130  164.8016 C.ar    1  UNL1        0.0043
      7 C         140.7057  142.2774  169.0820 C.3     1  UNL1        0.1025
      8 C         140.8133  142.1608  167.5904 C.3     1  UNL1        0.0327
      9 C         140.0483  141.0942  166.8644 C.3     1  UNL1        0.0943
     10 N         139.1758  140.1441  167.6299 N.am    1  UNL1       -0.2761
     11 C         138.4109  139.0775  166.9039 C.2     1  UNL1        0.2490
     12 O         137.5384  138.1274  167.6694 O.2     1  UNL1       -0.2699
     13 C         139.0682  140.2606  169.1214 C.3     1  UNL1        0.0943
     14 C         139.8332  141.3273  169.8476 C.3     1  UNL1        0.0327
     15 C         141.4706  143.3440  169.8081 C.2     1  UNL1        0.3167
     16 O         140.7609  144.5671  170.3085 O.2     1  UNL1       -0.2501
     17 C         143.5882  141.8405  169.8841 C.3     1  UNL1        0.2556
     18 O         142.9453  143.1875  170.0337 O.3     1  UNL1       -0.4444
     19 C         138.8411  138.6112  160.9374 C.3     1  UNL1        0.2320
     20 O         139.6336  139.6211  160.1615 O.3     1  UNL1       -0.4706
     21 C         140.6607  140.4640  160.8576 C.ar    1  UNL1        0.1397
     22 C         140.3495  141.8890  161.2074 C.ar    1  UNL1        0.0385
     23 C         141.3766  142.7319  161.9034 C.ar    1  UNL1        0.0228
     24 C         142.7150  142.1497  162.2497 C.ar    1  UNL1        0.0894
     25 N         143.9177  142.7334  162.9302 N.ar    1  UNL1       -0.2245
     26 C         144.9722  141.6690  163.0009 C.ar    1  UNL1        0.1567
     27 N         146.3380  141.8195  163.6027 N.pl3   1  UNL1       -0.3375
     28 S         144.4212  140.4276  162.3642 S.2     1  UNL1       -0.0519
     29 C         143.0262  140.7247  161.8999 C.ar    1  UNL1        0.0527
     30 C         141.9991  139.8819  161.2038 C.ar    1  UNL1        0.0450
     31 H         146.6093  142.6789  163.9990 H       1  UNL1        0.1442
     32 H         146.9630  141.0589  163.6014 H       1  UNL1        0.1442
@<TRIPOS>BOND
     1    17    18    1
     2    18    15    1
     3    15    16    2
     4    15     7    1
     5     7     8    1
     6     8     9    1
     7     9    10    1
     8    10    11   am
     9    11    12    2
    10    11     1    1
    11     1     2   ar
    12     2     3   ar
    13     3     4   ar
    14     4    19    1
    15    19    20    1
    16    20    21    1
    17    21    22   ar
    18    22    23   ar
    19    23    24   ar
    20    24    25   ar
    21    25    26   ar
    22    26    27    1
    23    26    28   ar
    24    28    29   ar
    25    29    30   ar
    26     4     5   ar
    27     5     6   ar
    28    10    13    1
    29    13    14    1
    30    14     7    1
    31     6     1   ar
    32    30    21   ar
    33    29    24   ar
    34    27    31    1
    35    27    32    1
@<TRIPOS>MOLECULE
*****
 32 35 0 0 0
SMALL
GASTEIGER

@<TRIPOS>ATOM
      1 C         143.6471  138.7456  165.1212 C.ar    1  UNL1        0.0536
      2 C         142.6007  138.2232  164.1821 C.ar    1  UNL1        0.0043
      3 C         142.6792  138.5433  162.7187 C.ar    1  UNL1       -0.0005
      4 C         143.8040  139.3858  162.1946 C.ar    1  UNL1        0.0212
      5 C         144.8504  139.9083  163.1337 C.ar    1  UNL1       -0.0005
      6 C         144.7719  139.5882  164.5970 C.ar    1  UNL1        0.0043
      7 C         140.8354  140.7937  169.2625 C.3     1  UNL1        0.1025
      8 C         140.9139  141.1138  167.7991 C.3     1  UNL1        0.0327
      9 C         141.8249  140.3244  166.9065 C.3     1  UNL1        0.0943
     10 N         142.6576  139.2149  167.4772 N.am    1  UNL1       -0.2761
     11 C         143.5687  138.4256  166.5846 C.2     1  UNL1        0.2490
     12 O         144.4013  137.3161  167.1553 O.2     1  UNL1       -0.2699
     13 C         142.5792  138.8948  168.9405 C.3     1  UNL1        0.0943
     14 C         141.6681  139.6842  169.8332 C.3     1  UNL1        0.0327
     15 C         139.9244  141.5831  170.1551 C.2     1  UNL1        0.3167
     16 O         138.5385  141.0854  170.4411 O.2     1  UNL1       -0.2501
     17 C         140.3826  144.1323  169.9512 C.3     1  UNL1        0.2556
     18 O         140.3991  142.8702  170.7617 O.3     1  UNL1       -0.4444
     19 C         143.8824  139.7059  160.7312 C.3     1  UNL1        0.2320
     20 O         143.4685  141.0601  160.2364 O.3     1  UNL1       -0.4706
     21 C         142.9964  142.1013  161.2075 C.ar    1  UNL1        0.1397
     22 C         143.9321  143.1818  161.6623 C.ar    1  UNL1        0.0385
     23 C         143.4600  144.2230  162.6334 C.ar    1  UNL1        0.0228
     24 C         142.0521  144.1838  163.1495 C.ar    1  UNL1        0.0894
     25 N         141.3090  145.0679  164.1068 N.ar    1  UNL1       -0.2245
     26 C         139.9140  144.5338  164.2434 C.ar    1  UNL1        0.1567
     27 N         138.8286  145.1122  165.1021 N.pl3   1  UNL1       -0.3375
     28 S         139.7950  143.3196  163.3707 S.2     1  UNL1       -0.0519
     29 C         141.1164  143.1033  162.6947 C.ar    1  UNL1        0.0527
     30 C         141.5885  142.0621  161.7236 C.ar    1  UNL1        0.0450
     31 H         139.0042  145.9162  165.6424 H       1  UNL1        0.1442
     32 H         137.9405  144.6879  165.1253 H       1  UNL1        0.1442
@<TRIPOS>BOND
     1    17    18    1
     2    18    15    1
     3    15    16    2
     4    15     7    1
     5     7     8    1
     6     8     9    1
     7     9    10    1
     8    10    11   am
     9    11    12    2
    10    11     1    1
    11     1     2   ar
    12     2     3   ar
    13     3     4   ar
    14     4    19    1
    15    19    20    1
    16    20    21    1
    17    21    22   ar
    18    22    23   ar
    19    23    24   ar
    20    24    25   ar
    21    25    26   ar
    22    26    27    1
    23    26    28   ar
    24    28    29   ar
    25    29    30   ar
    26     4     5   ar
    27     5     6   ar
    28    10    13    1
    29    13    14    1
    30    14     7    1
    31     6     1   ar
    32    30    21   ar
    33    29    24   ar
    34    27    31    1
    35    27    32    1
@<TRIPOS>MOLECULE
*****
 32 35 0 0 0
SMALL
GASTEIGER

@<TRIPOS>ATOM
      1 C         142.9718  138.4602  164.9377 C.ar    1  UNL1        0.0536
      2 C         141.8098  137.6908  164.3830 C.ar    1  UNL1        0.0043
      3 C         141.5401  137.6998  162.9075 C.ar    1  UNL1       -0.0005
      4 C         142.4325  138.4782  161.9867 C.ar    1  UNL1        0.0212
      5 C         143.5944  139.2476  162.5414 C.ar    1  UNL1       -0.0005
      6 C         143.8641  139.2386  164.0169 C.ar    1  UNL1        0.0043
      7 C         140.4084  140.5210  169.2311 C.3     1  UNL1        0.1025
      8 C         140.1387  140.5300  167.7555 C.3     1  UNL1        0.0327
      9 C         141.0831  139.8400  166.8163 C.3     1  UNL1        0.0943
     10 N         142.2971  139.1411  167.3525 N.am    1  UNL1       -0.2761
     11 C         143.2415  138.4512  166.4133 C.2     1  UNL1        0.2490
     12 O         144.4555  137.7523  166.9496 O.2     1  UNL1       -0.2699
     13 C         142.5669  139.1322  168.8280 C.3     1  UNL1        0.0943
     14 C         141.6225  139.8221  169.7673 C.3     1  UNL1        0.0327
     15 C         139.4641  141.2109  170.1703 C.2     1  UNL1        0.3167
     16 O         138.1300  140.5977  170.4772 O.2     1  UNL1       -0.2501
     17 C         140.3313  143.6498  169.9471 C.3     1  UNL1        0.2556
     18 O         139.8538  142.5140  170.8027 O.3     1  UNL1       -0.4444
     19 C         142.1627  138.4871  160.5111 C.3     1  UNL1        0.2320
     20 O         140.8257  138.9306  159.9958 O.3     1  UNL1       -0.4706
     21 C         140.2277  140.2204  160.4743 C.ar    1  UNL1        0.1397
     22 C         138.7645  140.2949  160.7961 C.ar    1  UNL1        0.0385
     23 C         138.1665  141.5846  161.2745 C.ar    1  UNL1        0.0228
     24 C         139.0317  142.7999  161.4312 C.ar    1  UNL1        0.0894
     25 N         138.7262  144.1984  161.8794 N.ar    1  UNL1       -0.2245
     26 C         140.0006  144.9883  161.8347 C.ar    1  UNL1        0.1567
     27 N         140.1549  146.4346  162.2014 N.pl3   1  UNL1       -0.3375
     28 S         141.0937  144.0779  161.3588 S.2     1  UNL1       -0.0519
     29 C         140.4949  142.7254  161.1094 C.ar    1  UNL1        0.0527
     30 C         141.0929  141.4357  160.6310 C.ar    1  UNL1        0.0450
     31 H         139.3739  146.9516  162.5046 H       1  UNL1        0.1442
     32 H         141.0372  146.8669  162.1388 H       1  UNL1        0.1442
@<TRIPOS>BOND
     1    17    18    1
     2    18    15    1
     3    15    16    2
     4    15     7    1
     5     7     8    1
     6     8     9    1
     7     9    10    1
     8    10    11   am
     9    11    12    2
    10    11     1    1
    11     1     2   ar
    12     2     3   ar
    13     3     4   ar
    14     4    19    1
    15    19    20    1
    16    20    21    1
    17    21    22   ar
    18    22    23   ar
    19    23    24   ar
    20    24    25   ar
    21    25    26   ar
    22    26    27    1
    23    26    28   ar
    24    28    29   ar
    25    29    30   ar
    26     4     5   ar
    27     5     6   ar
    28    10    13    1
    29    13    14    1
    30    14     7    1
    31     6     1   ar
    32    30    21   ar
    33    29    24   ar
    34    27    31    1
    35    27    32    1
@<TRIPOS>MOLECULE
*****
 32 35 0 0 0
SMALL
GASTEIGER

@<TRIPOS>ATOM
      1 C         143.6899  138.8140  165.1901 C.ar    1  UNL1        0.0536
      2 C         144.7628  139.7438  164.7059 C.ar    1  UNL1        0.0043
      3 C         144.7927  140.1704  163.2682 C.ar    1  UNL1       -0.0005
      4 C         143.7498  139.6673  162.3147 C.ar    1  UNL1        0.0212
      5 C         142.6770  138.7376  162.7988 C.ar    1  UNL1       -0.0005
      6 C         142.6470  138.3109  164.2365 C.ar    1  UNL1        0.0043
      7 C         141.2840  140.7543  169.6283 C.3     1  UNL1        0.1025
      8 C         141.3140  141.1810  168.1905 C.3     1  UNL1        0.0327
      9 C         142.1060  140.3920  167.1904 C.3     1  UNL1        0.0943
     10 N         142.8679  139.1763  167.6279 N.am    1  UNL1       -0.2761
     11 C         143.6599  138.3873  166.6278 C.2     1  UNL1        0.2490
     12 O         144.4219  137.1716  167.0654 O.2     1  UNL1       -0.2699
     13 C         142.8380  138.7496  169.0656 C.3     1  UNL1        0.0943
     14 C         142.0460  139.5386  170.0658 C.3     1  UNL1        0.0327
     15 C         140.4921  141.5433  170.6284 C.2     1  UNL1        0.3167
     16 O         141.1976  142.4181  171.6219 O.2     1  UNL1       -0.2501
     17 C         138.3120  140.2185  170.1359 C.3     1  UNL1        0.2556
     18 O         138.9945  141.4575  170.6351 O.3     1  UNL1       -0.4444
     19 C         143.7799  140.0940  160.8769 C.3     1  UNL1        0.2320
     20 O         143.0657  141.3421  160.4499 O.3     1  UNL1       -0.4706
     21 C         141.8687  141.8209  161.2167 C.ar    1  UNL1        0.1397
     22 C         140.5041  141.2962  160.8813 C.ar    1  UNL1        0.0385
     23 C         139.3071  141.7750  161.6481 C.ar    1  UNL1        0.0228
     24 C         139.4748  142.7785  162.7503 C.ar    1  UNL1        0.0894
     25 N         138.4878  143.4303  163.6730 N.ar    1  UNL1       -0.2245
     26 C         139.2425  144.3578  164.5786 C.ar    1  UNL1        0.1567
     27 N         138.6483  145.2137  165.6577 N.pl3   1  UNL1       -0.3375
     28 S         140.6959  144.2793  164.2156 S.2     1  UNL1       -0.0519
     29 C         140.8394  143.3032  163.0857 C.ar    1  UNL1        0.0527
     30 C         142.0363  142.8244  162.3189 C.ar    1  UNL1        0.0450
     31 H         137.6776  145.1964  165.8212 H       1  UNL1        0.1442
     32 H         139.2289  145.7928  166.2024 H       1  UNL1        0.1442
@<TRIPOS>BOND
     1    17    18    1
     2    18    15    1
     3    15    16    2
     4    15     7    1
     5     7     8    1
     6     8     9    1
     7     9    10    1
     8    10    11   am
     9    11    12    2
    10    11     1    1
    11     1     2   ar
    12     2     3   ar
    13     3     4   ar
    14     4    19    1
    15    19    20    1
    16    20    21    1
    17    21    22   ar
    18    22    23   ar
    19    23    24   ar
    20    24    25   ar
    21    25    26   ar
    22    26    27    1
    23    26    28   ar
    24    28    29   ar
    25    29    30   ar
    26     4     5   ar
    27     5     6   ar
    28    10    13    1
    29    13    14    1
    30    14     7    1
    31     6     1   ar
    32    30    21   ar
    33    29    24   ar
    34    27    31    1
    35    27    32    1
@<TRIPOS>MOLECULE
*****
 32 35 0 0 0
SMALL
GASTEIGER

@<TRIPOS>ATOM
      1 C         140.6057  143.0544  165.3029 C.ar    1  UNL1        0.0536
      2 C         139.7871  141.8850  165.7639 C.ar    1  UNL1        0.0043
      3 C         140.4474  140.7412  166.4750 C.ar    1  UNL1       -0.0005
      4 C         141.9261  140.7668  166.7252 C.ar    1  UNL1        0.0212
      5 C         142.7447  141.9361  166.2642 C.ar    1  UNL1       -0.0005
      6 C         142.0844  143.0799  165.5531 C.ar    1  UNL1        0.0043
      7 C         140.9578  145.0603  160.2927 C.3     1  UNL1        0.1025
      8 C         141.6180  143.9165  161.0038 C.3     1  UNL1        0.0327
      9 C         141.2806  143.6291  162.4368 C.3     1  UNL1        0.0943
     10 N         140.2829  144.4856  163.1587 N.am    1  UNL1       -0.2761
     11 C         139.9455  144.1983  164.5917 C.2     1  UNL1        0.2490
     12 O         138.9478  145.0547  165.3136 O.2     1  UNL1       -0.2699
     13 C         139.6227  145.6294  162.4476 C.3     1  UNL1        0.0943
     14 C         139.9601  145.9168  161.0145 C.3     1  UNL1        0.0327
     15 C         141.2952  145.3477  158.8597 C.2     1  UNL1        0.3167
     16 O         140.3057  146.0575  157.9839 O.2     1  UNL1       -0.2501
     17 C         142.7124  143.7230  157.4098 C.3     1  UNL1        0.2556
     18 O         142.6222  144.9252  158.3024 O.3     1  UNL1       -0.4444
     19 C         142.5863  139.6229  167.4364 C.3     1  UNL1        0.2320
     20 O         143.1978  138.5024  166.6485 O.3     1  UNL1       -0.4706
     21 C         142.8413  138.3203  165.2029 C.ar    1  UNL1        0.1397
     22 C         141.6056  137.5584  164.8254 C.ar    1  UNL1        0.0385
     23 C         141.2491  137.3763  163.3798 C.ar    1  UNL1        0.0228
     24 C         142.1283  137.9560  162.3118 C.ar    1  UNL1        0.0894
     25 N         142.0335  137.9389  160.8148 N.ar    1  UNL1       -0.2245
     26 C         143.2106  138.6902  160.2672 C.ar    1  UNL1        0.1567
     27 N         143.5124  138.9198  158.8159 N.pl3   1  UNL1       -0.3375
     28 S         144.0329  139.1717  161.4256 S.2     1  UNL1       -0.0519
     29 C         143.3640  138.7179  162.6892 C.ar    1  UNL1        0.0527
     30 C         143.7205  138.9001  164.1348 C.ar    1  UNL1        0.0450
     31 H         142.9091  138.5621  158.1250 H       1  UNL1        0.1442
     32 H         144.3139  139.4283  158.5542 H       1  UNL1        0.1442
@<TRIPOS>BOND
     1    17    18    1
     2    18    15    1
     3    15    16    2
     4    15     7    1
     5     7     8    1
     6     8     9    1
     7     9    10    1
     8    10    11   am
     9    11    12    2
    10    11     1    1
    11     1     2   ar
    12     2     3   ar
    13     3     4   ar
    14     4    19    1
    15    19    20    1
    16    20    21    1
    17    21    22   ar
    18    22    23   ar
    19    23    24   ar
    20    24    25   ar
    21    25    26   ar
    22    26    27    1
    23    26    28   ar
    24    28    29   ar
    25    29    30   ar
    26     4     5   ar
    27     5     6   ar
    28    10    13    1
    29    13    14    1
    30    14     7    1
    31     6     1   ar
    32    30    21   ar
    33    29    24   ar
    34    27    31    1
    35    27    32    1
@<TRIPOS>MOLECULE
*****
 32 35 0 0 0
SMALL
GASTEIGER

@<TRIPOS>ATOM
      1 C         139.7058  143.2470  162.9265 C.ar    1  UNL1        0.0536
      2 C         140.6343  142.0956  163.1757 C.ar    1  UNL1        0.0043
      3 C         140.1904  140.9457  164.0304 C.ar    1  UNL1       -0.0005
      4 C         138.8180  140.9472  164.6360 C.ar    1  UNL1        0.0212
      5 C         137.8896  142.0986  164.3867 C.ar    1  UNL1       -0.0005
      6 C         138.3334  143.2485  163.5320 C.ar    1  UNL1        0.0043
      7 C         139.7336  144.1665  157.5969 C.3     1  UNL1        0.1025
      8 C         139.2898  143.0165  158.4517 C.3     1  UNL1        0.0327
      9 C         139.4284  143.0934  159.9433 C.3     1  UNL1        0.0943
     10 N         140.0110  144.3202  160.5801 N.am    1  UNL1       -0.2761
     11 C         140.1496  144.3970  162.0717 C.2     1  UNL1        0.2490
     12 O         140.7322  145.6238  162.7086 O.2     1  UNL1       -0.2699
     13 C         140.4548  145.4701  159.7254 C.3     1  UNL1        0.0943
     14 C         140.3162  145.3933  158.2338 C.3     1  UNL1        0.0327
     15 C         139.5949  144.0897  156.1054 C.2     1  UNL1        0.3167
     16 O         140.4854  143.1769  155.3153 O.2     1  UNL1       -0.2501
     17 C         137.2028  144.3629  155.1292 C.3     1  UNL1        0.2556
     18 O         138.5659  144.9256  155.4037 O.3     1  UNL1       -0.4444
     19 C         138.3742  139.7972  165.4907 C.3     1  UNL1        0.2320
     20 O         139.3152  139.2033  166.4965 O.3     1  UNL1       -0.4706
     21 C         139.7364  140.0034  167.6935 C.ar    1  UNL1        0.1397
     22 C         138.8791  140.0195  168.9242 C.ar    1  UNL1        0.0385
     23 C         139.3003  140.8196  170.1211 C.ar    1  UNL1        0.0228
     24 C         140.5787  141.6035  170.0871 C.ar    1  UNL1        0.0894
     25 N         141.2471  142.4782  171.1061 N.ar    1  UNL1       -0.2245
     26 C         142.5173  143.0026  170.5051 C.ar    1  UNL1        0.1567
     27 N         143.4987  143.9172  171.1765 N.pl3   1  UNL1       -0.3375
     28 S         142.6341  142.4520  169.1147 S.2     1  UNL1       -0.0519
     29 C         141.4360  141.5873  168.8564 C.ar    1  UNL1        0.0527
     30 C         141.0148  140.7872  167.6595 C.ar    1  UNL1        0.0450
     31 H         143.3334  144.2265  172.0964 H       1  UNL1        0.1442
     32 H         144.3079  144.2080  170.6972 H       1  UNL1        0.1442
@<TRIPOS>BOND
     1    17    18    1
     2    18    15    1
     3    15    16    2
     4    15     7    1
     5     7     8    1
     6     8     9    1
     7     9    10    1
     8    10    11   am
     9    11    12    2
    10    11     1    1
    11     1     2   ar
    12     2     3   ar
    13     3     4   ar
    14     4    19    1
    15    19    20    1
    16    20    21    1
    17    21    22   ar
    18    22    23   ar
    19    23    24   ar
    20    24    25   ar
    21    25    26   ar
    22    26    27    1
    23    26    28   ar
    24    28    29   ar
    25    29    30   ar
    26     4     5   ar
    27     5     6   ar
    28    10    13    1
    29    13    14    1
    30    14     7    1
    31     6     1   ar
    32    30    21   ar
    33    29    24   ar
    34    27    31    1
    35    27    32    1
@<TRIPOS>MOLECULE
*****
 32 35 0 0 0
SMALL
GASTEIGER

@<TRIPOS>ATOM
      1 C         144.1526  141.2084  164.4088 C.ar    1  UNL1        0.0536
      2 C         143.8024  139.7674  164.6345 C.ar    1  UNL1        0.0043
      3 C         143.1116  139.3528  165.8996 C.ar    1  UNL1       -0.0005
      4 C         142.7709  140.3791  166.9392 C.ar    1  UNL1        0.0212
      5 C         143.1211  141.8201  166.7135 C.ar    1  UNL1       -0.0005
      6 C         143.8119  142.2347  165.4483 C.ar    1  UNL1        0.0043
      7 C         142.4243  142.6361  159.4869 C.3     1  UNL1        0.1025
      8 C         141.7334  142.2214  160.7521 C.3     1  UNL1        0.0327
      9 C         142.5398  141.8837  161.9710 C.3     1  UNL1        0.0943
     10 N         144.0371  141.9607  161.9247 N.am    1  UNL1       -0.2761
     11 C         144.8435  141.6231  163.1435 C.2     1  UNL1        0.2490
     12 O         146.3408  141.7001  163.0973 O.2     1  UNL1       -0.2699
     13 C         144.7280  142.3754  160.6595 C.3     1  UNL1        0.0943
     14 C         143.9216  142.7131  159.4406 C.3     1  UNL1        0.0327
     15 C         141.6179  142.9737  158.2680 C.2     1  UNL1        0.3167
     16 O         141.0649  141.8769  157.4070 O.2     1  UNL1       -0.2501
     17 C         141.1078  145.4167  158.9905 C.3     1  UNL1        0.2556
     18 O         141.3644  144.4082  157.9101 O.3     1  UNL1       -0.4444
     19 C         142.0800  139.9644  168.2044 C.3     1  UNL1        0.2320
     20 O         140.5819  139.9725  168.2782 O.3     1  UNL1       -0.4706
     21 C         139.7739  140.3649  167.0768 C.ar    1  UNL1        0.1397
     22 C         138.9241  139.3448  166.3787 C.ar    1  UNL1        0.0385
     23 C         138.1161  139.7372  165.1774 C.ar    1  UNL1        0.0228
     24 C         138.1580  141.1496  164.6741 C.ar    1  UNL1        0.0894
     25 N         137.4747  141.8254  163.5223 N.ar    1  UNL1       -0.2245
     26 C         137.9023  143.2630  163.5085 C.ar    1  UNL1        0.1567
     27 N         137.4600  144.3051  162.5243 N.pl3   1  UNL1       -0.3375
     28 S         138.8498  143.4758  164.6518 S.2     1  UNL1       -0.0519
     29 C         139.0078  142.1697  165.3721 C.ar    1  UNL1        0.0527
     30 C         139.8157  141.7773  166.5735 C.ar    1  UNL1        0.0450
     31 H         136.8318  144.0672  161.8046 H       1  UNL1        0.1442
     32 H         137.7979  145.2268  162.5981 H       1  UNL1        0.1442
@<TRIPOS>BOND
     1    17    18    1
     2    18    15    1
     3    15    16    2
     4    15     7    1
     5     7     8    1
     6     8     9    1
     7     9    10    1
     8    10    11   am
     9    11    12    2
    10    11     1    1
    11     1     2   ar
    12     2     3   ar
    13     3     4   ar
    14     4    19    1
    15    19    20    1
    16    20    21    1
    17    21    22   ar
    18    22    23   ar
    19    23    24   ar
    20    24    25   ar
    21    25    26   ar
    22    26    27    1
    23    26    28   ar
    24    28    29   ar
    25    29    30   ar
    26     4     5   ar
    27     5     6   ar
    28    10    13    1
    29    13    14    1
    30    14     7    1
    31     6     1   ar
    32    30    21   ar
    33    29    24   ar
    34    27    31    1
    35    27    32    1
@<TRIPOS>MOLECULE
*****
 32 35 0 0 0
SMALL
GASTEIGER

@<TRIPOS>ATOM
      1 C         142.5039  138.1269  162.2360 C.ar    1  UNL1        0.0536
      2 C         143.7062  138.8928  162.7025 C.ar    1  UNL1        0.0043
      3 C         143.9411  139.0992  164.1695 C.ar    1  UNL1       -0.0005
      4 C         142.9736  138.5397  165.1700 C.ar    1  UNL1        0.0212
      5 C         141.7712  137.7739  164.7035 C.ar    1  UNL1       -0.0005
      6 C         141.5364  137.5674  163.2364 C.ar    1  UNL1        0.0043
      7 C         139.0768  140.2784  158.6476 C.3     1  UNL1        0.1025
      8 C         139.3117  140.4849  160.1147 C.3     1  UNL1        0.0327
      9 C         140.3757  139.6989  160.8217 C.3     1  UNL1        0.0943
     10 N         141.2049  138.7064  160.0618 N.am    1  UNL1       -0.2761
     11 C         142.2690  137.9204  160.7689 C.2     1  UNL1        0.2490
     12 O         143.0981  136.9280  160.0089 O.2     1  UNL1       -0.2699
     13 C         140.9701  138.5000  158.5948 C.3     1  UNL1        0.0943
     14 C         139.9060  139.2860  157.8876 C.3     1  UNL1        0.0327
     15 C         138.0128  141.0644  157.9405 C.2     1  UNL1        0.3167
     16 O         137.9601  142.5563  158.0871 O.2     1  UNL1       -0.2501
     17 C         137.1106  140.4161  155.5919 C.3     1  UNL1        0.2556
     18 O         137.0013  140.3585  157.0868 O.3     1  UNL1       -0.4444
     19 C         143.2085  138.7462  166.6371 C.3     1  UNL1        0.2320
     20 O         142.9411  140.0850  167.2583 O.3     1  UNL1       -0.4706
     21 C         142.0809  141.0850  166.5441 C.ar    1  UNL1        0.1397
     22 C         140.5887  141.0268  166.6847 C.ar    1  UNL1        0.0385
     23 C         139.7285  142.0267  165.9704 C.ar    1  UNL1        0.0228
     24 C         140.3606  143.0849  165.1155 C.ar    1  UNL1        0.0894
     25 N         139.7742  144.1970  164.2974 N.ar    1  UNL1       -0.2245
     26 C         140.9040  144.9425  163.6511 C.ar    1  UNL1        0.1567
     27 N         140.7723  146.1308  162.7451 N.pl3   1  UNL1       -0.3375
     28 S         142.1887  144.2911  164.0699 S.2     1  UNL1       -0.0519
     29 C         141.8528  143.1430  164.9749 C.ar    1  UNL1        0.0527
     30 C         142.7130  142.1431  165.6892 C.ar    1  UNL1        0.0450
     31 H         139.8809  146.4876  162.5277 H       1  UNL1        0.1442
     32 H         141.5773  146.5537  162.3679 H       1  UNL1        0.1442
@<TRIPOS>BOND
     1    17    18    1
     2    18    15    1
     3    15    16    2
     4    15     7    1
     5     7     8    1
     6     8     9    1
     7     9    10    1
     8    10    11   am
     9    11    12    2
    10    11     1    1
    11     1     2   ar
    12     2     3   ar
    13     3     4   ar
    14     4    19    1
    15    19    20    1
    16    20    21    1
    17    21    22   ar
    18    22    23   ar
    19    23    24   ar
    20    24    25   ar
    21    25    26   ar
    22    26    27    1
    23    26    28   ar
    24    28    29   ar
    25    29    30   ar
    26     4     5   ar
    27     5     6   ar
    28    10    13    1
    29    13    14    1
    30    14     7    1
    31     6     1   ar
    32    30    21   ar
    33    29    24   ar
    34    27    31    1
    35    27    32    1
