@<TRIPOS>MOLECULE
*****
 23 25 0 0 0
SMALL
GASTEIGER

@<TRIPOS>ATOM
      1 N         138.1075  140.7826  163.3668 N.ar    1  UNL1       -0.3165
      2 C         137.9109  139.5950  162.4718 C.ar    1  UNL1        0.0779
      3 C         138.8115  138.4968  162.9544 C.ar    1  UNL1        0.0392
      4 C         139.5647  139.0057  164.1476 C.ar    1  UNL1        0.0985
      5 N         140.5906  138.3652  165.0349 N.ar    1  UNL1       -0.2423
      6 C         141.1814  139.1374  166.1771 C.ar    1  UNL1        0.0989
      7 C         140.7463  140.5502  166.4319 C.ar    1  UNL1        0.0206
      8 C         139.7205  141.1906  165.5446 C.ar    1  UNL1        0.0203
      9 C         139.1297  140.4184  164.4025 C.ar    1  UNL1        0.0782
     10 C         141.3371  141.3224  167.5742 C.ar    1  UNL1        0.0025
     11 C         142.7101  140.9863  168.0761 C.ar    1  UNL1        0.0024
     12 C         143.3009  141.7586  169.2184 C.ar    1  UNL1        0.0305
     13 C         142.5187  142.8668  169.8586 C.ar    1  UNL1        0.1506
     14 F         143.1095  143.6390  171.0008 F       1  UNL1       -0.2033
     15 C         141.1457  143.2029  169.3566 C.ar    1  UNL1        0.0850
     16 CL        140.3635  144.3111  169.9968 Cl      1  UNL1       -0.0799
     17 C         140.5549  142.4307  168.2144 C.ar    1  UNL1        0.0137
     18 C         137.4053  142.1027  163.2471 C.3     1  UNL1        0.1920
     19 C         139.1904  145.5279  162.3352 C.3     1  UNL1        0.1150
     20 N         138.5740  144.4206  163.1375 N.am    1  UNL1       -0.2744
     21 C         138.5096  144.5237  164.6326 C.3     1  UNL1        0.1150
     22 C         138.0218  143.2101  162.4447 C.2     1  UNL1        0.2488
     23 O         138.0861  143.1070  160.9497 O.2     1  UNL1       -0.2728
@<TRIPOS>BOND
     1    19    20    1
     2    20    21    1
     3    20    22   am
     4    22    23    2
     5    22    18    1
     6    18     1    1
     7     1     2   ar
     8     2     3   ar
     9     3     4   ar
    10     4     5   ar
    11     5     6   ar
    12     6     7   ar
    13     7    10    1
    14    10    11   ar
    15    11    12   ar
    16    12    13   ar
    17    13    14    1
    18    13    15   ar
    19    15    16    1
    20    15    17   ar
    21     7     8   ar
    22     8     9   ar
    23     9     1   ar
    24     9     4   ar
    25    17    10   ar
@<TRIPOS>MOLECULE
*****
 23 25 0 0 0
SMALL
GASTEIGER

@<TRIPOS>ATOM
      1 N         137.8766  141.4549  162.6102 N.ar    1  UNL1       -0.3165
      2 C         137.5848  140.4947  161.4953 C.ar    1  UNL1        0.0779
      3 C         137.9298  139.1143  161.9702 C.ar    1  UNL1        0.0392
      4 C         138.4347  139.2214  163.3786 C.ar    1  UNL1        0.0985
      5 N         138.9202  138.1886  164.3520 N.ar    1  UNL1       -0.2423
      6 C         139.3728  138.6023  165.7209 C.ar    1  UNL1        0.0989
      7 C         139.3400  140.0488  166.1164 C.ar    1  UNL1        0.0206
      8 C         138.8545  141.0816  165.1430 C.ar    1  UNL1        0.0203
      9 C         138.4018  140.6679  163.7741 C.ar    1  UNL1        0.0782
     10 C         139.7926  140.4625  167.4854 C.ar    1  UNL1        0.0025
     11 C         139.0473  139.9873  168.6973 C.ar    1  UNL1        0.0024
     12 C         139.5000  140.4010  170.0662 C.ar    1  UNL1        0.0305
     13 C         140.6979  141.2899  170.2233 C.ar    1  UNL1        0.1506
     14 F         141.1506  141.7036  171.5922 F       1  UNL1       -0.2033
     15 C         141.4432  141.7652  169.0113 C.ar    1  UNL1        0.0850
     16 CL        142.6412  142.6541  169.1684 Cl      1  UNL1       -0.0799
     17 C         140.9906  141.3515  167.6424 C.ar    1  UNL1        0.0137
     18 C         137.6779  142.9411  162.5685 C.3     1  UNL1        0.1920
     19 C         140.5990  145.6266  162.4952 C.3     1  UNL1        0.1150
     20 N         139.5035  144.7376  163.0045 N.am    1  UNL1       -0.2744
     21 C         139.1380  144.7559  164.4592 C.3     1  UNL1        0.1150
     22 C         138.7735  143.8302  162.0591 C.2     1  UNL1        0.2488
     23 O         139.1390  143.8119  160.6045 O.2     1  UNL1       -0.2728
@<TRIPOS>BOND
     1    19    20    1
     2    20    21    1
     3    20    22   am
     4    22    23    2
     5    22    18    1
     6    18     1    1
     7     1     2   ar
     8     2     3   ar
     9     3     4   ar
    10     4     5   ar
    11     5     6   ar
    12     6     7   ar
    13     7    10    1
    14    10    11   ar
    15    11    12   ar
    16    12    13   ar
    17    13    14    1
    18    13    15   ar
    19    15    16    1
    20    15    17   ar
    21     7     8   ar
    22     8     9   ar
    23     9     1   ar
    24     9     4   ar
    25    17    10   ar
@<TRIPOS>MOLECULE
*****
 23 25 0 0 0
SMALL
GASTEIGER

@<TRIPOS>ATOM
      1 N         141.4596  138.2734  163.3433 N.ar    1  UNL1       -0.3165
      2 C         140.3499  137.5354  162.6550 C.ar    1  UNL1        0.0779
      3 C         139.0964  137.7320  163.4552 C.ar    1  UNL1        0.0392
      4 C         139.4316  138.5915  164.6380 C.ar    1  UNL1        0.0985
      5 N         138.5955  139.1126  165.7690 N.ar    1  UNL1       -0.2423
      6 C         139.2200  139.9684  166.8309 C.ar    1  UNL1        0.0989
      7 C         140.6805  140.3030  166.7617 C.ar    1  UNL1        0.0206
      8 C         141.5166  139.7819  165.6307 C.ar    1  UNL1        0.0203
      9 C         140.8921  138.9261  164.5688 C.ar    1  UNL1        0.0782
     10 C         141.3050  141.1588  167.8237 C.ar    1  UNL1        0.0025
     11 C         142.6957  140.8645  168.3024 C.ar    1  UNL1        0.0024
     12 C         143.3202  141.7204  169.3644 C.ar    1  UNL1        0.0305
     13 C         142.5539  142.8705  169.9475 C.ar    1  UNL1        0.1506
     14 F         143.1783  143.7263  171.0094 F       1  UNL1       -0.2033
     15 C         141.1631  143.1647  169.4687 C.ar    1  UNL1        0.0850
     16 CL        140.3968  144.3148  170.0519 Cl      1  UNL1       -0.0799
     17 C         140.5387  142.3089  168.4068 C.ar    1  UNL1        0.0137
     18 C         142.8865  138.3460  162.8862 C.3     1  UNL1        0.1920
     19 C         145.0283  141.6416  162.3370 C.3     1  UNL1        0.1150
     20 N         144.5017  140.3799  162.9540 N.am    1  UNL1       -0.2744
     21 C         145.0637  139.8902  164.2557 C.3     1  UNL1        0.1150
     22 C         143.4131  139.6078  162.2692 C.2     1  UNL1        0.2488
     23 O         142.8512  140.0975  160.9675 O.2     1  UNL1       -0.2728
@<TRIPOS>BOND
     1    19    20    1
     2    20    21    1
     3    20    22   am
     4    22    23    2
     5    22    18    1
     6    18     1    1
     7     1     2   ar
     8     2     3   ar
     9     3     4   ar
    10     4     5   ar
    11     5     6   ar
    12     6     7   ar
    13     7    10    1
    14    10    11   ar
    15    11    12   ar
    16    12    13   ar
    17    13    14    1
    18    13    15   ar
    19    15    16    1
    20    15    17   ar
    21     7     8   ar
    22     8     9   ar
    23     9     1   ar
    24     9     4   ar
    25    17    10   ar
@<TRIPOS>MOLECULE
*****
 23 25 0 0 0
SMALL
GASTEIGER

@<TRIPOS>ATOM
      1 N         144.2831  140.4243  162.5275 N.ar    1  UNL1       -0.3165
      2 C         144.3007  139.6274  161.2567 C.ar    1  UNL1        0.0779
      3 C         143.3717  138.4622  161.4274 C.ar    1  UNL1        0.0392
      4 C         142.7799  138.5389  162.8036 C.ar    1  UNL1        0.0985
      5 N         141.8008  137.6612  163.5255 N.ar    1  UNL1       -0.2423
      6 C         141.3851  137.9961  164.9272 C.ar    1  UNL1        0.0989
      7 C         141.9484  139.2088  165.6071 C.ar    1  UNL1        0.0206
      8 C         142.9274  140.0865  164.8852 C.ar    1  UNL1        0.0203
      9 C         143.3432  139.7515  163.4835 C.ar    1  UNL1        0.0782
     10 C         141.5326  139.5437  167.0089 C.ar    1  UNL1        0.0025
     11 C         140.1078  139.9102  167.3013 C.ar    1  UNL1        0.0024
     12 C         139.6920  140.2451  168.7031 C.ar    1  UNL1        0.0305
     13 C         140.7011  140.2135  169.8125 C.ar    1  UNL1        0.1506
     14 F         140.2854  140.5484  171.2143 F       1  UNL1       -0.2033
     15 C         142.1260  139.8470  169.5201 C.ar    1  UNL1        0.0850
     16 CL        143.1351  139.8154  170.6294 Cl      1  UNL1       -0.0799
     17 C         142.5417  139.5121  168.1183 C.ar    1  UNL1        0.0137
     18 C         145.0677  141.6744  162.7952 C.3     1  UNL1        0.1920
     19 C         143.4927  145.2050  163.6918 C.3     1  UNL1        0.1150
     20 N         144.1441  143.8630  163.8476 N.am    1  UNL1       -0.2744
     21 C         144.5236  143.3672  165.2115 C.3     1  UNL1        0.1150
     22 C         144.4162  143.0166  162.6395 C.2     1  UNL1        0.2488
     23 O         144.0367  143.5123  161.2756 O.2     1  UNL1       -0.2728
@<TRIPOS>BOND
     1    19    20    1
     2    20    21    1
     3    20    22   am
     4    22    23    2
     5    22    18    1
     6    18     1    1
     7     1     2   ar
     8     2     3   ar
     9     3     4   ar
    10     4     5   ar
    11     5     6   ar
    12     6     7   ar
    13     7    10    1
    14    10    11   ar
    15    11    12   ar
    16    12    13   ar
    17    13    14    1
    18    13    15   ar
    19    15    16    1
    20    15    17   ar
    21     7     8   ar
    22     8     9   ar
    23     9     1   ar
    24     9     4   ar
    25    17    10   ar
@<TRIPOS>MOLECULE
*****
 23 25 0 0 0
SMALL
GASTEIGER

@<TRIPOS>ATOM
      1 N         137.9357  141.1760  162.2204 N.ar    1  UNL1       -0.3165
      2 C         137.5411  140.3770  161.0138 C.ar    1  UNL1        0.0779
      3 C         137.9663  138.9563  161.2394 C.ar    1  UNL1        0.0392
      4 C         138.6237  138.8773  162.5853 C.ar    1  UNL1        0.0985
      5 N         139.2371  137.7335  163.3372 N.ar    1  UNL1       -0.2423
      6 C         139.8317  137.9615  164.6953 C.ar    1  UNL1        0.0989
      7 C         139.8127  139.3334  165.3016 C.ar    1  UNL1        0.0206
      8 C         139.1993  140.4772  164.5498 C.ar    1  UNL1        0.0203
      9 C         138.6048  140.2492  163.1916 C.ar    1  UNL1        0.0782
     10 C         140.4073  139.5613  166.6598 C.ar    1  UNL1        0.0025
     11 C         141.8860  139.4162  166.8651 C.ar    1  UNL1        0.0024
     12 C         142.4806  139.6442  168.2233 C.ar    1  UNL1        0.0305
     13 C         141.5963  140.0173  169.3761 C.ar    1  UNL1        0.1506
     14 F         142.1908  140.2453  170.7342 F       1  UNL1       -0.2033
     15 C         140.1175  140.1624  169.1707 C.ar    1  UNL1        0.0850
     16 CL        139.2332  140.5355  170.3234 Cl      1  UNL1       -0.0799
     17 C         139.5230  139.9344  167.8125 C.ar    1  UNL1        0.0137
     18 C         137.7022  142.6442  162.4206 C.3     1  UNL1        0.1920
     19 C         140.2766  145.6616  162.2862 C.3     1  UNL1        0.1150
     20 N         139.2861  144.6660  162.8131 N.am    1  UNL1       -0.2744
     21 C         138.8887  144.6965  164.2592 C.3     1  UNL1        0.1150
     22 C         138.6928  143.6398  161.8938 C.2     1  UNL1        0.2488
     23 O         139.0902  143.6093  160.4477 O.2     1  UNL1       -0.2728
@<TRIPOS>BOND
     1    19    20    1
     2    20    21    1
     3    20    22   am
     4    22    23    2
     5    22    18    1
     6    18     1    1
     7     1     2   ar
     8     2     3   ar
     9     3     4   ar
    10     4     5   ar
    11     5     6   ar
    12     6     7   ar
    13     7    10    1
    14    10    11   ar
    15    11    12   ar
    16    12    13   ar
    17    13    14    1
    18    13    15   ar
    19    15    16    1
    20    15    17   ar
    21     7     8   ar
    22     8     9   ar
    23     9     1   ar
    24     9     4   ar
    25    17    10   ar
@<TRIPOS>MOLECULE
*****
 23 25 0 0 0
SMALL
GASTEIGER

@<TRIPOS>ATOM
      1 N         143.4536  139.3203  162.5677 N.ar    1  UNL1       -0.3165
      2 C         144.1798  140.0137  161.4532 C.ar    1  UNL1        0.0779
      3 C         144.6013  141.3663  161.9457 C.ar    1  UNL1        0.0392
      4 C         144.1357  141.5090  163.3645 C.ar    1  UNL1        0.0985
      5 N         144.2660  142.6269  164.3560 N.ar    1  UNL1       -0.2423
      6 C         143.6870  142.4804  165.7319 C.ar    1  UNL1        0.0989
      7 C         142.9776  141.2158  166.1163 C.ar    1  UNL1        0.0206
      8 C         142.8473  140.0979  165.1248 C.ar    1  UNL1        0.0203
      9 C         143.4264  140.2444  163.7489 C.ar    1  UNL1        0.0782
     10 C         142.3986  141.0693  167.4923 C.ar    1  UNL1        0.0025
     11 C         142.5770  139.7861  168.2483 C.ar    1  UNL1        0.0024
     12 C         141.9979  139.6396  169.6243 C.ar    1  UNL1        0.0305
     13 C         141.2405  140.7762  170.2442 C.ar    1  UNL1        0.1506
     14 F         140.6614  140.6297  171.6201 F       1  UNL1       -0.2033
     15 C         141.0620  142.0594  169.4881 C.ar    1  UNL1        0.0850
     16 CL        140.3046  143.1961  170.1079 Cl      1  UNL1       -0.0799
     17 C         141.6411  142.2059  168.1122 C.ar    1  UNL1        0.0137
     18 C         142.8590  137.9444  162.5109 C.3     1  UNL1        0.1920
     19 C         138.8941  137.8154  162.6263 C.3     1  UNL1        0.1150
     20 N         140.2908  138.0498  162.1321 N.am    1  UNL1       -0.2744
     21 C         140.5160  138.6242  160.7648 C.3     1  UNL1        0.1150
     22 C         141.4622  137.7099  163.0051 C.2     1  UNL1        0.2488
     23 O         141.2370  137.1355  164.3723 O.2     1  UNL1       -0.2728
@<TRIPOS>BOND
     1    19    20    1
     2    20    21    1
     3    20    22   am
     4    22    23    2
     5    22    18    1
     6    18     1    1
     7     1     2   ar
     8     2     3   ar
     9     3     4   ar
    10     4     5   ar
    11     5     6   ar
    12     6     7   ar
    13     7    10    1
    14    10    11   ar
    15    11    12   ar
    16    12    13   ar
    17    13    14    1
    18    13    15   ar
    19    15    16    1
    20    15    17   ar
    21     7     8   ar
    22     8     9   ar
    23     9     1   ar
    24     9     4   ar
    25    17    10   ar
@<TRIPOS>MOLECULE
*****
 23 25 0 0 0
SMALL
GASTEIGER

@<TRIPOS>ATOM
      1 N         138.2971  140.7692  162.8564 N.ar    1  UNL1       -0.3165
      2 C         137.8033  141.6636  161.7582 C.ar    1  UNL1        0.0779
      3 C         138.0228  143.0850  162.1840 C.ar    1  UNL1        0.0392
      4 C         138.6524  143.0691  163.5454 C.ar    1  UNL1        0.0985
      5 N         139.0931  144.1730  164.4603 N.ar    1  UNL1       -0.2423
      6 C         139.7034  143.8456  165.7908 C.ar    1  UNL1        0.0989
      7 C         139.8729  142.4144  166.2064 C.ar    1  UNL1        0.0206
      8 C         139.4322  141.3105  165.2915 C.ar    1  UNL1        0.0203
      9 C         138.8219  141.6379  163.9610 C.ar    1  UNL1        0.0782
     10 C         140.4833  142.0870  167.5371 C.ar    1  UNL1        0.0025
     11 C         140.4197  143.0831  168.6568 C.ar    1  UNL1        0.0024
     12 C         141.0300  142.7557  169.9874 C.ar    1  UNL1        0.0305
     13 C         141.7039  141.4323  170.1982 C.ar    1  UNL1        0.1506
     14 F         142.3142  141.1049  171.5287 F       1  UNL1       -0.2033
     15 C         141.7674  140.4362  169.0784 C.ar    1  UNL1        0.0850
     16 CL        142.4413  139.1128  169.2892 Cl      1  UNL1       -0.0799
     17 C         141.1571  140.7636  167.7479 C.ar    1  UNL1        0.0137
     18 C         138.2709  139.2694  162.8511 C.3     1  UNL1        0.1920
     19 C         141.1383  136.8959  164.2273 C.3     1  UNL1        0.1150
     20 N         139.8554  137.6687  164.1463 N.am    1  UNL1       -0.2744
     21 C         138.8738  137.6138  165.2792 C.3     1  UNL1        0.1150
     22 C         139.5539  138.4965  162.9322 C.2     1  UNL1        0.2488
     23 O         140.5355  138.5514  161.7993 O.2     1  UNL1       -0.2728
@<TRIPOS>BOND
     1    19    20    1
     2    20    21    1
     3    20    22   am
     4    22    23    2
     5    22    18    1
     6    18     1    1
     7     1     2   ar
     8     2     3   ar
     9     3     4   ar
    10     4     5   ar
    11     5     6   ar
    12     6     7   ar
    13     7    10    1
    14    10    11   ar
    15    11    12   ar
    16    12    13   ar
    17    13    14    1
    18    13    15   ar
    19    15    16    1
    20    15    17   ar
    21     7     8   ar
    22     8     9   ar
    23     9     1   ar
    24     9     4   ar
    25    17    10   ar
@<TRIPOS>MOLECULE
*****
 23 25 0 0 0
SMALL
GASTEIGER

@<TRIPOS>ATOM
      1 N         139.4306  138.9325  163.1328 N.ar    1  UNL1       -0.3165
      2 C         139.9569  138.0713  162.0231 C.ar    1  UNL1        0.0779
      3 C         141.3097  137.5669  162.4297 C.ar    1  UNL1        0.0392
      4 C         141.6195  138.1162  163.7907 C.ar    1  UNL1        0.0985
      5 N         142.8090  137.9569  164.6904 N.ar    1  UNL1       -0.2423
      6 C         142.8372  138.6417  166.0247 C.ar    1  UNL1        0.0989
      7 C         141.6758  139.4858  166.4592 C.ar    1  UNL1        0.0206
      8 C         140.4863  139.6450  165.5594 C.ar    1  UNL1        0.0203
      9 C         140.4581  138.9603  164.2252 C.ar    1  UNL1        0.0782
     10 C         141.7040  140.1706  167.7935 C.ar    1  UNL1        0.0025
     11 C         140.5331  140.0501  168.7232 C.ar    1  UNL1        0.0024
     12 C         140.5613  140.7349  170.0575 C.ar    1  UNL1        0.0305
     13 C         141.7605  141.5401  170.4621 C.ar    1  UNL1        0.1506
     14 F         141.7887  142.2249  171.7963 F       1  UNL1       -0.2033
     15 C         142.9315  141.6605  169.5323 C.ar    1  UNL1        0.0850
     16 CL        144.1306  142.4657  169.9368 Cl      1  UNL1       -0.0799
     17 C         142.9032  140.9758  168.1980 C.ar    1  UNL1        0.0137
     18 C         138.1088  139.6415  163.1474 C.3     1  UNL1        0.1920
     19 C         137.7933  143.5533  162.5572 C.3     1  UNL1        0.1150
     20 N         137.9435  142.2323  163.2516 N.am    1  UNL1       -0.2744
     21 C         138.0787  142.1809  164.7446 C.3     1  UNL1        0.1150
     22 C         137.9586  140.9627  162.4530 C.2     1  UNL1        0.2488
     23 O         137.8234  141.0141  160.9600 O.2     1  UNL1       -0.2728
@<TRIPOS>BOND
     1    19    20    1
     2    20    21    1
     3    20    22   am
     4    22    23    2
     5    22    18    1
     6    18     1    1
     7     1     2   ar
     8     2     3   ar
     9     3     4   ar
    10     4     5   ar
    11     5     6   ar
    12     6     7   ar
    13     7    10    1
    14    10    11   ar
    15    11    12   ar
    16    12    13   ar
    17    13    14    1
    18    13    15   ar
    19    15    16    1
    20    15    17   ar
    21     7     8   ar
    22     8     9   ar
    23     9     1   ar
    24     9     4   ar
    25    17    10   ar
@<TRIPOS>MOLECULE
*****
 23 25 0 0 0
SMALL
GASTEIGER

@<TRIPOS>ATOM
      1 N         143.0101  142.8237  161.7887 N.ar    1  UNL1       -0.3165
      2 C         144.4605  142.8905  161.4123 C.ar    1  UNL1        0.0779
      3 C         145.2093  141.9218  162.2788 C.ar    1  UNL1        0.0392
      4 C         144.2217  141.2564  163.1909 C.ar    1  UNL1        0.0985
      5 N         144.3845  140.2149  164.2580 N.ar    1  UNL1       -0.2423
      6 C         143.1880  139.7309  165.0222 C.ar    1  UNL1        0.0989
      7 C         141.8288  140.2883  164.7193 C.ar    1  UNL1        0.0206
      8 C         141.6660  141.3298  163.6522 C.ar    1  UNL1        0.0203
      9 C         142.8625  141.8138  162.8880 C.ar    1  UNL1        0.0782
     10 C         140.6323  139.8042  165.4836 C.ar    1  UNL1        0.0025
     11 C         139.6383  138.8951  164.8238 C.ar    1  UNL1        0.0024
     12 C         138.4418  138.4110  165.5881 C.ar    1  UNL1        0.0305
     13 C         138.2393  138.8361  167.0123 C.ar    1  UNL1        0.1506
     14 F         137.0429  138.3520  167.7766 F       1  UNL1       -0.2033
     15 C         139.2334  139.7453  167.6721 C.ar    1  UNL1        0.0850
     16 CL        139.0309  140.1704  169.0963 Cl      1  UNL1       -0.0799
     17 C         140.4298  140.2293  166.9078 C.ar    1  UNL1        0.0137
     18 C         141.9018  143.6260  161.1739 C.3     1  UNL1        0.1920
     19 C         138.5251  144.7521  162.9289 C.3     1  UNL1        0.1150
     20 N         139.4861  144.0056  162.0520 N.am    1  UNL1       -0.2744
     21 C         138.9929  142.8923  161.1761 C.3     1  UNL1        0.1150
     22 C         140.9406  144.3725  162.0509 C.2     1  UNL1        0.2488
     23 O         141.4338  145.4858  162.9268 O.2     1  UNL1       -0.2728
@<TRIPOS>BOND
     1    19    20    1
     2    20    21    1
     3    20    22   am
     4    22    23    2
     5    22    18    1
     6    18     1    1
     7     1     2   ar
     8     2     3   ar
     9     3     4   ar
    10     4     5   ar
    11     5     6   ar
    12     6     7   ar
    13     7    10    1
    14    10    11   ar
    15    11    12   ar
    16    12    13   ar
    17    13    14    1
    18    13    15   ar
    19    15    16    1
    20    15    17   ar
    21     7     8   ar
    22     8     9   ar
    23     9     1   ar
    24     9     4   ar
    25    17    10   ar
