@<TRIPOS>MOLECULE
*****
 35 38 0 0 0
SMALL
GASTEIGER

@<TRIPOS>ATOM
      1 C         143.6989  139.5213  160.8772 C.ar    1  UNL1        0.0597
      2 C         143.2118  138.6192  161.9721 C.ar    1  UNL1        0.0422
      3 C         143.3686  139.0285  163.4065 C.ar    1  UNL1        0.1485
      4 C         144.0126  140.3400  163.7461 C.ar    1  UNL1        0.0743
      5 C         144.4997  141.2421  162.6513 C.ar    1  UNL1        0.1418
      6 C         144.3429  140.8328  161.2168 C.ar    1  UNL1        0.0416
      7 N         142.7634  137.8779  159.0956 N.am    1  UNL1       -0.2644
      8 C         143.5421  139.1120  159.4426 C.2     1  UNL1        0.2508
      9 O         144.1641  139.9368  158.3551 O.2     1  UNL1       -0.2698
     10 H         142.3552  137.3365  159.8094 H       1  UNL1        0.1566
     11 C         142.9035  135.0573  154.6341 C.3     1  UNL1        0.1538
     12 N         142.6710  136.1720  155.6103 N.ar    1  UNL1       -0.2462
     13 C         142.0595  137.5054  155.2967 C.ar    1  UNL1        0.0981
     14 C         142.0197  138.3067  156.5642 C.ar    1  UNL1        0.0564
     15 C         142.6066  137.4685  157.6610 C.ar    1  UNL1        0.1557
     16 N         143.0091  136.1493  157.0715 N.ar    1  UNL1       -0.1539
     17 O         142.8815  138.1264  164.5015 O.3     1  UNL1       -0.4534
     18 C         142.2549  138.7116  165.7323 C.ar    1  UNL1        0.1453
     19 C         140.8377  139.2013  165.6920 C.ar    1  UNL1        0.0376
     20 C         140.2111  139.7866  166.9229 C.ar    1  UNL1        0.0076
     21 C         141.0018  139.8820  168.1940 C.ar    1  UNL1        0.0538
     22 C         142.4190  139.3922  168.2343 C.ar    1  UNL1        0.0076
     23 C         143.0456  138.8070  167.0034 C.ar    1  UNL1        0.0376
     24 C         140.3753  140.4672  169.4249 C.2     1  UNL1        0.2490
     25 O         139.7859  139.5647  170.4680 O.2     1  UNL1       -0.2699
     26 N         140.3381  141.9550  169.6126 N.am    1  UNL1       -0.2760
     27 C         140.8082  143.1365  168.8170 C.3     1  UNL1        0.0955
     28 C         140.2855  144.0590  169.8781 C.3     1  UNL1        0.0430
     29 C         139.8154  142.8774  170.6737 C.3     1  UNL1        0.0955
     30 O         145.1437  142.5536  162.9909 O.3     1  UNL1       -0.4732
     31 C         144.3895  143.5749  163.7897 C.3     1  UNL1        0.2361
     32 C         143.6502  144.6772  163.0908 C.3     1  UNL1        0.2393
     33 F         142.3623  145.1947  163.6597 F       1  UNL1       -0.2302
     34 C         144.3745  143.4939  165.2875 C.3     1  UNL1        0.2393
     35 F         145.3958  144.2448  166.0894 F       1  UNL1       -0.2302
@<TRIPOS>BOND
     1    11    12    1
     2    12    13   ar
     3    13    14   ar
     4    14    15   ar
     5    15     7    1
     6     7     8   am
     7     8     9    2
     8     8     1    1
     9     1     2   ar
    10     2     3   ar
    11     3    17    1
    12    17    18    1
    13    18    19   ar
    14    19    20   ar
    15    20    21   ar
    16    21    24    1
    17    24    25    2
    18    24    26   am
    19    26    27    1
    20    27    28    1
    21    28    29    1
    22    21    22   ar
    23    22    23   ar
    24     3     4   ar
    25     4     5   ar
    26     5    30    1
    27    30    31    1
    28    31    32    1
    29    32    33    1
    30    31    34    1
    31    34    35    1
    32     5     6   ar
    33    15    16   ar
    34    16    12   ar
    35     6     1   ar
    36    23    18   ar
    37    29    26    1
    38     7    10    1
@<TRIPOS>MOLECULE
*****
 35 38 0 0 0
SMALL
GASTEIGER

@<TRIPOS>ATOM
      1 C         139.4539  139.5398  160.3520 C.ar    1  UNL1        0.0597
      2 C         139.3517  138.6393  161.5472 C.ar    1  UNL1        0.0422
      3 C         138.6903  139.1294  162.8011 C.ar    1  UNL1        0.1485
      4 C         138.1312  140.5201  162.8597 C.ar    1  UNL1        0.0743
      5 C         138.2334  141.4206  161.6645 C.ar    1  UNL1        0.1418
      6 C         138.8948  140.9304  160.4106 C.ar    1  UNL1        0.0416
      7 N         141.6085  138.9200  159.0390 N.am    1  UNL1       -0.2644
      8 C         140.1153  139.0496  159.0980 C.2     1  UNL1        0.2508
      9 O         139.2834  138.6890  157.9030 O.2     1  UNL1       -0.2698
     10 H         142.1545  139.1566  159.8233 H       1  UNL1        0.1566
     11 C         144.0168  135.8076  155.5186 C.3     1  UNL1        0.1538
     12 N         143.3768  136.9992  156.1669 N.ar    1  UNL1       -0.2462
     13 C         143.1984  138.3521  155.5440 C.ar    1  UNL1        0.0981
     14 C         142.5142  139.2363  156.5441 C.ar    1  UNL1        0.0564
     15 C         142.2699  138.4298  157.7851 C.ar    1  UNL1        0.1557
     16 N         142.8030  137.0473  157.5519 N.ar    1  UNL1       -0.1539
     17 O         138.5880  138.2289  163.9964 O.3     1  UNL1       -0.4534
     18 C         138.8719  138.7672  165.3674 C.ar    1  UNL1        0.1453
     19 C         140.1992  139.3997  165.6648 C.ar    1  UNL1        0.0376
     20 C         140.4832  139.9380  167.0358 C.ar    1  UNL1        0.0076
     21 C         139.4398  139.8439  168.1094 C.ar    1  UNL1        0.0538
     22 C         138.1126  139.2114  167.8120 C.ar    1  UNL1        0.0076
     23 C         137.8287  138.6731  166.4410 C.ar    1  UNL1        0.0376
     24 C         139.7237  140.3822  169.4804 C.2     1  UNL1        0.2490
     25 O         139.6331  139.4788  170.6744 O.2     1  UNL1       -0.2699
     26 N         140.0983  141.8239  169.6573 N.am    1  UNL1       -0.2760
     27 C         140.2842  142.9924  168.7353 C.3     1  UNL1        0.0955
     28 C         140.6279  143.8627  169.9076 C.3     1  UNL1        0.0430
     29 C         140.4420  142.6942  170.8296 C.3     1  UNL1        0.0955
     30 O         137.6743  142.8113  161.7232 O.3     1  UNL1       -0.4732
     31 C         138.3890  143.8747  162.5031 C.3     1  UNL1        0.2361
     32 C         138.0579  144.0942  163.9496 C.3     1  UNL1        0.2393
     33 F         137.2865  143.0553  164.7084 F       1  UNL1       -0.2302
     34 C         139.4347  144.7186  161.8366 C.3     1  UNL1        0.2393
     35 F         139.6349  146.1421  162.2651 F       1  UNL1       -0.2302
@<TRIPOS>BOND
     1    11    12    1
     2    12    13   ar
     3    13    14   ar
     4    14    15   ar
     5    15     7    1
     6     7     8   am
     7     8     9    2
     8     8     1    1
     9     1     2   ar
    10     2     3   ar
    11     3    17    1
    12    17    18    1
    13    18    19   ar
    14    19    20   ar
    15    20    21   ar
    16    21    24    1
    17    24    25    2
    18    24    26   am
    19    26    27    1
    20    27    28    1
    21    28    29    1
    22    21    22   ar
    23    22    23   ar
    24     3     4   ar
    25     4     5   ar
    26     5    30    1
    27    30    31    1
    28    31    32    1
    29    32    33    1
    30    31    34    1
    31    34    35    1
    32     5     6   ar
    33    15    16   ar
    34    16    12   ar
    35     6     1   ar
    36    23    18   ar
    37    29    26    1
    38     7    10    1
@<TRIPOS>MOLECULE
*****
 35 38 0 0 0
SMALL
GASTEIGER

@<TRIPOS>ATOM
      1 C         138.7357  140.1431  160.1073 C.ar    1  UNL1        0.0597
      2 C         138.7829  139.1552  161.2350 C.ar    1  UNL1        0.0422
      3 C         138.4459  139.5925  162.6297 C.ar    1  UNL1        0.1485
      4 C         138.0619  141.0177  162.8967 C.ar    1  UNL1        0.0743
      5 C         138.0147  142.0056  161.7690 C.ar    1  UNL1        0.1418
      6 C         138.3516  141.5683  160.3743 C.ar    1  UNL1        0.0416
      7 N         139.4349  138.2756  158.4419 N.am    1  UNL1       -0.2644
      8 C         139.0726  139.7058  158.7126 C.2     1  UNL1        0.2508
      9 O         139.0472  140.6987  157.5885 O.2     1  UNL1       -0.2698
     10 H         139.4516  137.6239  159.1796 H       1  UNL1        0.1566
     11 C         138.9908  136.9357  153.3538 C.3     1  UNL1        0.1538
     12 N         139.5677  137.2225  154.7084 N.ar    1  UNL1       -0.2462
     13 C         141.0131  137.1084  155.0933 C.ar    1  UNL1        0.0981
     14 C         141.1392  137.4891  156.5388 C.ar    1  UNL1        0.0564
     15 C         139.7719  137.8383  157.0471 C.ar    1  UNL1        0.1557
     16 N         138.8007  137.6736  155.9159 N.ar    1  UNL1       -0.1539
     17 O         138.4931  138.6046  163.7575 O.3     1  UNL1       -0.4534
     18 C         138.9353  139.0443  165.1218 C.ar    1  UNL1        0.1453
     19 C         140.3369  139.5348  165.3340 C.ar    1  UNL1        0.0376
     20 C         140.7791  139.9745  166.6982 C.ar    1  UNL1        0.0076
     21 C         139.8196  139.9238  167.8502 C.ar    1  UNL1        0.0538
     22 C         138.4181  139.4333  167.6379 C.ar    1  UNL1        0.0076
     23 C         137.9759  138.9936  166.2737 C.ar    1  UNL1        0.0376
     24 C         140.2618  140.3636  169.2144 C.2     1  UNL1        0.2490
     25 O         140.5101  139.3448  170.2870 O.2     1  UNL1       -0.2699
     26 N         140.4556  141.8222  169.5061 N.am    1  UNL1       -0.2760
     27 C         140.3108  143.0899  168.7175 C.3     1  UNL1        0.0955
     28 C         140.7297  143.8848  169.9186 C.3     1  UNL1        0.0430
     29 C         140.8746  142.6171  170.7072 C.3     1  UNL1        0.0955
     30 O         137.6306  143.4308  162.0360 O.3     1  UNL1       -0.4732
     31 C         138.4754  144.2784  162.9402 C.3     1  UNL1        0.2361
     32 C         138.2174  144.2865  164.4179 C.3     1  UNL1        0.2393
     33 F         138.8812  143.2714  165.3006 F       1  UNL1       -0.2302
     34 C         139.5783  145.1181  162.3669 C.3     1  UNL1        0.2393
     35 F         139.2683  146.4612  161.7753 F       1  UNL1       -0.2302
@<TRIPOS>BOND
     1    11    12    1
     2    12    13   ar
     3    13    14   ar
     4    14    15   ar
     5    15     7    1
     6     7     8   am
     7     8     9    2
     8     8     1    1
     9     1     2   ar
    10     2     3   ar
    11     3    17    1
    12    17    18    1
    13    18    19   ar
    14    19    20   ar
    15    20    21   ar
    16    21    24    1
    17    24    25    2
    18    24    26   am
    19    26    27    1
    20    27    28    1
    21    28    29    1
    22    21    22   ar
    23    22    23   ar
    24     3     4   ar
    25     4     5   ar
    26     5    30    1
    27    30    31    1
    28    31    32    1
    29    32    33    1
    30    31    34    1
    31    34    35    1
    32     5     6   ar
    33    15    16   ar
    34    16    12   ar
    35     6     1   ar
    36    23    18   ar
    37    29    26    1
    38     7    10    1
@<TRIPOS>MOLECULE
*****
 35 38 0 0 0
SMALL
GASTEIGER

@<TRIPOS>ATOM
      1 C         138.3215  140.5151  160.4995 C.ar    1  UNL1        0.0597
      2 C         138.5565  139.4552  161.5344 C.ar    1  UNL1        0.0422
      3 C         138.5330  139.8113  162.9913 C.ar    1  UNL1        0.1485
      4 C         138.2746  141.2273  163.4133 C.ar    1  UNL1        0.0743
      5 C         138.0396  142.2873  162.3783 C.ar    1  UNL1        0.1418
      6 C         138.0631  141.9312  160.9214 C.ar    1  UNL1        0.0416
      7 N         137.6846  141.0584  158.0399 N.am    1  UNL1       -0.2644
      8 C         138.3450  140.1591  159.0425 C.2     1  UNL1        0.2508
      9 O         139.0288  138.9037  158.5881 O.2     1  UNL1       -0.2698
     10 H         137.2358  141.8823  158.3381 H       1  UNL1        0.1566
     11 C         136.2351  139.3056  153.2747 C.3     1  UNL1        0.1538
     12 N         137.0418  139.8967  154.3926 N.ar    1  UNL1       -0.2462
     13 C         138.4467  140.4123  154.2892 C.ar    1  UNL1        0.0981
     14 C         138.8584  140.9103  155.6430 C.ar    1  UNL1        0.0564
     15 C         137.7081  140.7023  156.5829 C.ar    1  UNL1        0.1557
     16 N         136.5854  140.0759  155.8102 N.ar    1  UNL1       -0.1539
     17 O         138.7680  138.7513  164.0264 O.3     1  UNL1       -0.4534
     18 C         139.1154  139.1403  165.4328 C.ar    1  UNL1        0.1453
     19 C         138.0609  139.1172  166.4995 C.ar    1  UNL1        0.0376
     20 C         138.4083  139.5063  167.9059 C.ar    1  UNL1        0.0076
     21 C         139.8101  139.9183  168.2457 C.ar    1  UNL1        0.0538
     22 C         140.8644  139.9413  167.1790 C.ar    1  UNL1        0.0076
     23 C         140.5170  139.5523  165.7726 C.ar    1  UNL1        0.0376
     24 C         140.1574  140.3073  169.6521 C.2     1  UNL1        0.2490
     25 O         139.5334  139.5814  170.8069 O.2     1  UNL1       -0.2699
     26 N         141.1289  141.4223  169.9036 N.am    1  UNL1       -0.2760
     27 C         141.9287  142.3482  169.0360 C.3     1  UNL1        0.0955
     28 C         142.5026  142.9991  170.2595 C.3     1  UNL1        0.0430
     29 C         141.7028  142.0731  171.1272 C.3     1  UNL1        0.0955
     30 O         137.7812  143.7033  162.8002 O.3     1  UNL1       -0.4732
     31 C         138.9299  144.6071  163.1371 C.3     1  UNL1        0.2361
     32 C         139.6740  145.3139  162.0432 C.3     1  UNL1        0.2393
     33 F         139.6839  146.8130  161.9902 F       1  UNL1       -0.2302
     34 C         139.3347  144.8040  164.5681 C.3     1  UNL1        0.2393
     35 F         138.3246  145.2652  165.5765 F       1  UNL1       -0.2302
@<TRIPOS>BOND
     1    11    12    1
     2    12    13   ar
     3    13    14   ar
     4    14    15   ar
     5    15     7    1
     6     7     8   am
     7     8     9    2
     8     8     1    1
     9     1     2   ar
    10     2     3   ar
    11     3    17    1
    12    17    18    1
    13    18    19   ar
    14    19    20   ar
    15    20    21   ar
    16    21    24    1
    17    24    25    2
    18    24    26   am
    19    26    27    1
    20    27    28    1
    21    28    29    1
    22    21    22   ar
    23    22    23   ar
    24     3     4   ar
    25     4     5   ar
    26     5    30    1
    27    30    31    1
    28    31    32    1
    29    32    33    1
    30    31    34    1
    31    34    35    1
    32     5     6   ar
    33    15    16   ar
    34    16    12   ar
    35     6     1   ar
    36    23    18   ar
    37    29    26    1
    38     7    10    1
@<TRIPOS>MOLECULE
*****
 35 38 0 0 0
SMALL
GASTEIGER

@<TRIPOS>ATOM
      1 C         140.3092  139.0984  160.1498 C.ar    1  UNL1        0.0597
      2 C         140.1905  138.2342  161.3700 C.ar    1  UNL1        0.0422
      3 C         139.9649  138.8611  162.7139 C.ar    1  UNL1        0.1485
      4 C         139.8580  140.3522  162.8375 C.ar    1  UNL1        0.0743
      5 C         139.9768  141.2164  161.6173 C.ar    1  UNL1        0.1418
      6 C         140.2024  140.5895  160.2734 C.ar    1  UNL1        0.0416
      7 N         141.9196  138.0776  158.3849 N.am    1  UNL1       -0.2644
      8 C         140.5348  138.4716  158.8058 C.2     1  UNL1        0.2508
      9 O         139.3756  138.2387  157.8827 O.2     1  UNL1       -0.2698
     10 H         142.6804  138.2305  158.9907 H       1  UNL1        0.1566
     11 C         141.8915  137.2212  153.1747 C.3     1  UNL1        0.1538
     12 N         142.1323  137.0571  154.6460 N.ar    1  UNL1       -0.2462
     13 C         142.8525  135.9150  155.2996 C.ar    1  UNL1        0.0981
     14 C         142.8604  136.1583  156.7798 C.ar    1  UNL1        0.0564
     15 C         142.1452  137.4507  157.0409 C.ar    1  UNL1        0.1557
     16 N         141.6952  138.0062  155.7222 N.ar    1  UNL1       -0.1539
     17 O         139.8461  137.9969  163.9342 O.3     1  UNL1       -0.4534
     18 C         139.7281  138.6266  165.2905 C.ar    1  UNL1        0.1453
     19 C         140.9371  139.2232  165.9482 C.ar    1  UNL1        0.0376
     20 C         140.8191  139.8528  167.3045 C.ar    1  UNL1        0.0076
     21 C         139.4921  139.8860  168.0032 C.ar    1  UNL1        0.0538
     22 C         138.2832  139.2894  167.3455 C.ar    1  UNL1        0.0076
     23 C         138.4012  138.6597  165.9891 C.ar    1  UNL1        0.0376
     24 C         139.3741  140.5156  169.3595 C.2     1  UNL1        0.2490
     25 O         138.7832  139.7385  170.4983 O.2     1  UNL1       -0.2699
     26 N         139.8470  141.9225  169.5769 N.am    1  UNL1       -0.2760
     27 C         140.4707  142.9775  168.7121 C.3     1  UNL1        0.0955
     28 C         140.5157  143.9120  169.8845 C.3     1  UNL1        0.0430
     29 C         139.8919  142.8570  170.7494 C.3     1  UNL1        0.0955
     30 O         139.8699  142.7075  161.7410 O.3     1  UNL1       -0.4732
     31 C         139.1248  143.3130  162.8933 C.3     1  UNL1        0.2361
     32 C         139.8750  144.0181  163.9842 C.3     1  UNL1        0.2393
     33 F         139.1920  145.0728  164.8034 F       1  UNL1       -0.2302
     34 C         137.6293  143.2135  162.9549 C.3     1  UNL1        0.2393
     35 F         136.9822  141.9863  163.5252 F       1  UNL1       -0.2302
@<TRIPOS>BOND
     1    11    12    1
     2    12    13   ar
     3    13    14   ar
     4    14    15   ar
     5    15     7    1
     6     7     8   am
     7     8     9    2
     8     8     1    1
     9     1     2   ar
    10     2     3   ar
    11     3    17    1
    12    17    18    1
    13    18    19   ar
    14    19    20   ar
    15    20    21   ar
    16    21    24    1
    17    24    25    2
    18    24    26   am
    19    26    27    1
    20    27    28    1
    21    28    29    1
    22    21    22   ar
    23    22    23   ar
    24     3     4   ar
    25     4     5   ar
    26     5    30    1
    27    30    31    1
    28    31    32    1
    29    32    33    1
    30    31    34    1
    31    34    35    1
    32     5     6   ar
    33    15    16   ar
    34    16    12   ar
    35     6     1   ar
    36    23    18   ar
    37    29    26    1
    38     7    10    1
@<TRIPOS>MOLECULE
*****
 35 38 0 0 0
SMALL
GASTEIGER

@<TRIPOS>ATOM
      1 C         141.1992  145.0096  159.6609 C.ar    1  UNL1        0.0597
      2 C         142.1895  143.9884  160.1368 C.ar    1  UNL1        0.0422
      3 C         142.0593  143.4008  161.5107 C.ar    1  UNL1        0.1485
      4 C         140.9388  143.8343  162.4088 C.ar    1  UNL1        0.0743
      5 C         139.9485  144.8555  161.9329 C.ar    1  UNL1        0.1418
      6 C         140.0787  145.4431  160.5590 C.ar    1  UNL1        0.0416
      7 N         140.1802  145.5197  157.3261 N.am    1  UNL1       -0.2644
      8 C         141.3294  145.5973  158.2869 C.2     1  UNL1        0.2508
      9 O         142.6088  146.2625  157.8739 O.2     1  UNL1       -0.2698
     10 H         139.3405  145.0831  157.5972 H       1  UNL1        0.1566
     11 C         139.9176  148.8656  153.2498 C.3     1  UNL1        0.1538
     12 N         140.1897  147.6453  154.0784 N.ar    1  UNL1       -0.2462
     13 C         140.8317  146.3779  153.5972 C.ar    1  UNL1        0.0981
     14 C         140.9063  145.4274  154.7552 C.ar    1  UNL1        0.0564
     15 C         140.3103  146.1074  155.9521 C.ar    1  UNL1        0.1557
     16 N         139.8675  147.4781  155.5338 N.ar    1  UNL1       -0.1539
     17 O         143.0496  142.3796  161.9867 O.3     1  UNL1       -0.4534
     18 C         142.8769  141.7369  163.3309 C.ar    1  UNL1        0.1453
     19 C         142.1046  140.4571  163.4567 C.ar    1  UNL1        0.0376
     20 C         141.9318  139.8144  164.8010 C.ar    1  UNL1        0.0076
     21 C         142.5313  140.4516  166.0195 C.ar    1  UNL1        0.0538
     22 C         143.3036  141.7313  165.8937 C.ar    1  UNL1        0.0076
     23 C         143.4763  142.3740  164.5494 C.ar    1  UNL1        0.0376
     24 C         142.3585  139.8089  167.3638 C.2     1  UNL1        0.2490
     25 O         143.2909  138.7173  167.7986 O.2     1  UNL1       -0.2699
     26 N         141.2534  140.2578  168.2733 N.am    1  UNL1       -0.2760
     27 C         140.1618  141.2833  168.1901 C.3     1  UNL1        0.0955
     28 C         139.6904  140.8927  169.5595 C.3     1  UNL1        0.0430
     29 C         140.7820  139.8672  169.6427 C.3     1  UNL1        0.0955
     30 O         138.8279  145.2890  162.8309 O.3     1  UNL1       -0.4732
     31 C         138.3671  144.3923  163.9416 C.3     1  UNL1        0.2361
     32 C         137.6399  143.1192  163.6249 C.3     1  UNL1        0.2393
     33 F         137.3359  142.1373  164.7175 F       1  UNL1       -0.2302
     34 C         138.6336  144.7686  165.3690 C.3     1  UNL1        0.2393
     35 F         139.5886  143.9569  166.1929 F       1  UNL1       -0.2302
@<TRIPOS>BOND
     1    11    12    1
     2    12    13   ar
     3    13    14   ar
     4    14    15   ar
     5    15     7    1
     6     7     8   am
     7     8     9    2
     8     8     1    1
     9     1     2   ar
    10     2     3   ar
    11     3    17    1
    12    17    18    1
    13    18    19   ar
    14    19    20   ar
    15    20    21   ar
    16    21    24    1
    17    24    25    2
    18    24    26   am
    19    26    27    1
    20    27    28    1
    21    28    29    1
    22    21    22   ar
    23    22    23   ar
    24     3     4   ar
    25     4     5   ar
    26     5    30    1
    27    30    31    1
    28    31    32    1
    29    32    33    1
    30    31    34    1
    31    34    35    1
    32     5     6   ar
    33    15    16   ar
    34    16    12   ar
    35     6     1   ar
    36    23    18   ar
    37    29    26    1
    38     7    10    1
@<TRIPOS>MOLECULE
*****
 35 38 0 0 0
SMALL
GASTEIGER

@<TRIPOS>ATOM
      1 C         141.8577  138.9908  160.5121 C.ar    1  UNL1        0.0597
      2 C         141.1567  138.2334  161.6006 C.ar    1  UNL1        0.0422
      3 C         141.2276  138.7194  163.0178 C.ar    1  UNL1        0.1485
      4 C         141.9994  139.9629  163.3466 C.ar    1  UNL1        0.0743
      5 C         142.7004  140.7203  162.2581 C.ar    1  UNL1        0.1418
      6 C         142.6295  140.2342  160.8408 C.ar    1  UNL1        0.0416
      7 N         143.0214  137.9900  158.4158 N.am    1  UNL1       -0.2644
      8 C         141.7869  138.5047  159.0947 C.2     1  UNL1        0.2508
      9 O         140.4815  138.5335  158.3563 O.2     1  UNL1       -0.2698
     10 H         143.8781  137.9711  158.9004 H       1  UNL1        0.1566
     11 C         142.6848  134.8239  154.2036 C.3     1  UNL1        0.1538
     12 N         142.7959  136.0486  155.0623 N.ar    1  UNL1       -0.2462
     13 C         142.8873  137.4635  154.5725 C.ar    1  UNL1        0.0981
     14 C         142.9829  138.3630  155.7692 C.ar    1  UNL1        0.0564
     15 C         142.9506  137.5039  156.9984 C.ar    1  UNL1        0.1557
     16 N         142.8350  136.0736  156.5616 N.ar    1  UNL1       -0.1539
     17 O         140.5265  137.9620  164.1064 O.3     1  UNL1       -0.4534
     18 C         140.2652  138.6195  165.4291 C.ar    1  UNL1        0.1453
     19 C         141.4106  139.1314  166.2514 C.ar    1  UNL1        0.0376
     20 C         141.1493  139.7889  167.5741 C.ar    1  UNL1        0.0076
     21 C         139.7426  139.9345  168.0744 C.ar    1  UNL1        0.0538
     22 C         138.5974  139.4226  167.2520 C.ar    1  UNL1        0.0076
     23 C         138.8587  138.7651  165.9294 C.ar    1  UNL1        0.0376
     24 C         139.4814  140.5920  169.3970 C.2     1  UNL1        0.2490
     25 O         138.8265  139.8185  170.5028 O.2     1  UNL1       -0.2699
     26 N         139.8749  142.0232  169.6139 N.am    1  UNL1       -0.2760
     27 C         140.5272  143.0826  168.7759 C.3     1  UNL1        0.0955
     28 C         140.4314  144.0471  169.9206 C.3     1  UNL1        0.0430
     29 C         139.7792  142.9877  170.7587 C.3     1  UNL1        0.0955
     30 O         143.4722  141.9637  162.5868 O.3     1  UNL1       -0.4732
     31 C         144.2798  142.0335  163.8489 C.3     1  UNL1        0.2361
     32 C         145.4687  141.1369  164.0291 C.3     1  UNL1        0.2393
     33 F         145.3304  139.6574  163.8237 F       1  UNL1       -0.2302
     34 C         143.8985  143.0000  164.9309 C.3     1  UNL1        0.2393
     35 F         144.9400  143.8880  165.5446 F       1  UNL1       -0.2302
@<TRIPOS>BOND
     1    11    12    1
     2    12    13   ar
     3    13    14   ar
     4    14    15   ar
     5    15     7    1
     6     7     8   am
     7     8     9    2
     8     8     1    1
     9     1     2   ar
    10     2     3   ar
    11     3    17    1
    12    17    18    1
    13    18    19   ar
    14    19    20   ar
    15    20    21   ar
    16    21    24    1
    17    24    25    2
    18    24    26   am
    19    26    27    1
    20    27    28    1
    21    28    29    1
    22    21    22   ar
    23    22    23   ar
    24     3     4   ar
    25     4     5   ar
    26     5    30    1
    27    30    31    1
    28    31    32    1
    29    32    33    1
    30    31    34    1
    31    34    35    1
    32     5     6   ar
    33    15    16   ar
    34    16    12   ar
    35     6     1   ar
    36    23    18   ar
    37    29    26    1
    38     7    10    1
@<TRIPOS>MOLECULE
*****
 35 38 0 0 0
SMALL
GASTEIGER

@<TRIPOS>ATOM
      1 C         139.6952  140.8259  160.1961 C.ar    1  UNL1        0.0597
      2 C         139.2584  139.9082  161.2992 C.ar    1  UNL1        0.0422
      3 C         140.2602  139.4007  162.2935 C.ar    1  UNL1        0.1485
      4 C         141.6989  139.8110  162.1847 C.ar    1  UNL1        0.0743
      5 C         142.1358  140.7287  161.0816 C.ar    1  UNL1        0.1418
      6 C         141.1339  141.2362  160.0873 C.ar    1  UNL1        0.0416
      7 N         138.1741  140.4229  158.1287 N.am    1  UNL1       -0.2644
      8 C         138.6933  141.3334  159.2017 C.2     1  UNL1        0.2508
      9 O         138.2106  142.7515  159.2804 O.2     1  UNL1       -0.2698
     10 H         138.4909  139.4922  158.0771 H       1  UNL1        0.1566
     11 C         133.7605  140.9798  155.2844 C.3     1  UNL1        0.1538
     12 N         135.1435  141.1864  155.8269 N.ar    1  UNL1       -0.2462
     13 C         136.1177  142.2364  155.3813 C.ar    1  UNL1        0.0981
     14 C         137.3716  142.0782  156.1894 C.ar    1  UNL1        0.0564
     15 C         137.1722  140.9304  157.1343 C.ar    1  UNL1        0.1557
     16 N         135.7953  140.3792  156.9103 N.ar    1  UNL1       -0.1539
     17 O         139.8234  138.4830  163.3967 O.3     1  UNL1       -0.4534
     18 C         139.7670  138.9827  164.8099 C.ar    1  UNL1        0.1453
     19 C         138.4572  139.0215  165.5400 C.ar    1  UNL1        0.0376
     20 C         138.4007  139.5212  166.9531 C.ar    1  UNL1        0.0076
     21 C         139.6541  139.9823  167.6362 C.ar    1  UNL1        0.0538
     22 C         140.9638  139.9435  166.9062 C.ar    1  UNL1        0.0076
     23 C         141.0203  139.4437  165.4930 C.ar    1  UNL1        0.0376
     24 C         139.5977  140.4820  169.0494 C.2     1  UNL1        0.2490
     25 O         139.1652  139.5630  170.1532 O.2     1  UNL1       -0.2699
     26 N         139.9737  141.9008  169.3587 N.am    1  UNL1       -0.2760
     27 C         140.4392  143.0752  168.5500 C.3     1  UNL1        0.0955
     28 C         140.5055  143.9073  169.7963 C.3     1  UNL1        0.0430
     29 C         140.0400  142.7329  170.6051 C.3     1  UNL1        0.0955
     30 O         143.5744  141.1390  160.9728 O.3     1  UNL1       -0.4732
     31 C         144.2535  141.8070  162.1314 C.3     1  UNL1        0.2361
     32 C         144.0477  143.2722  162.3783 C.3     1  UNL1        0.2393
     33 F         143.0028  144.0231  161.6073 F       1  UNL1       -0.2302
     34 C         145.1385  141.0099  163.0433 C.3     1  UNL1        0.2393
     35 F         146.1642  141.7046  163.8890 F       1  UNL1       -0.2302
@<TRIPOS>BOND
     1    11    12    1
     2    12    13   ar
     3    13    14   ar
     4    14    15   ar
     5    15     7    1
     6     7     8   am
     7     8     9    2
     8     8     1    1
     9     1     2   ar
    10     2     3   ar
    11     3    17    1
    12    17    18    1
    13    18    19   ar
    14    19    20   ar
    15    20    21   ar
    16    21    24    1
    17    24    25    2
    18    24    26   am
    19    26    27    1
    20    27    28    1
    21    28    29    1
    22    21    22   ar
    23    22    23   ar
    24     3     4   ar
    25     4     5   ar
    26     5    30    1
    27    30    31    1
    28    31    32    1
    29    32    33    1
    30    31    34    1
    31    34    35    1
    32     5     6   ar
    33    15    16   ar
    34    16    12   ar
    35     6     1   ar
    36    23    18   ar
    37    29    26    1
    38     7    10    1
@<TRIPOS>MOLECULE
*****
 35 38 0 0 0
SMALL
GASTEIGER

@<TRIPOS>ATOM
      1 C         142.8793  139.2950  159.6026 C.ar    1  UNL1        0.0597
      2 C         143.8174  139.4669  160.7603 C.ar    1  UNL1        0.0422
      3 C         143.3991  139.0361  162.1349 C.ar    1  UNL1        0.1485
      4 C         142.0427  138.4334  162.3517 C.ar    1  UNL1        0.0743
      5 C         141.1046  138.2615  161.1939 C.ar    1  UNL1        0.1418
      6 C         141.5229  138.6923  159.8194 C.ar    1  UNL1        0.0416
      7 N         144.6378  140.3659  158.0180 N.am    1  UNL1       -0.2644
      8 C         143.2976  139.7259  158.2280 C.2     1  UNL1        0.2508
      9 O         142.3756  139.5166  157.0634 O.2     1  UNL1       -0.2698
     10 H         145.2429  140.5033  158.7823 H       1  UNL1        0.1566
     11 C         145.7385  143.3624  153.8120 C.3     1  UNL1        0.1538
     12 N         145.5620  142.1741  154.7101 N.ar    1  UNL1       -0.2462
     13 C         145.8374  140.7452  154.3460 C.ar    1  UNL1        0.0981
     14 C         145.5247  139.8939  155.5409 C.ar    1  UNL1        0.0564
     15 C         145.0561  140.7967  156.6433 C.ar    1  UNL1        0.1557
     16 N         145.0791  142.2059  156.1299 N.ar    1  UNL1       -0.1539
     17 O         144.3372  139.2080  163.2927 O.3     1  UNL1       -0.4534
     18 C         143.8448  139.8145  164.5732 C.ar    1  UNL1        0.1453
     19 C         143.7667  141.3058  164.7154 C.ar    1  UNL1        0.0376
     20 C         143.2743  141.9123  165.9959 C.ar    1  UNL1        0.0076
     21 C         142.8601  141.0276  167.1342 C.ar    1  UNL1        0.0538
     22 C         142.9382  139.5364  166.9920 C.ar    1  UNL1        0.0076
     23 C         143.4305  138.9299  165.7115 C.ar    1  UNL1        0.0376
     24 C         142.3677  141.6341  168.4147 C.2     1  UNL1        0.2490
     25 O         143.1956  142.6647  169.1235 O.2     1  UNL1       -0.2699
     26 N         141.0473  141.2100  168.9865 N.am    1  UNL1       -0.2760
     27 C         139.9767  140.2417  168.5787 C.3     1  UNL1        0.0955
     28 C         139.1802  140.6102  169.7952 C.3     1  UNL1        0.0430
     29 C         140.2508  141.5785  170.2029 C.3     1  UNL1        0.0955
     30 O         139.7482  137.6588  161.4107 O.3     1  UNL1       -0.4732
     31 C         138.8300  138.2321  162.4490 C.3     1  UNL1        0.2361
     32 C         138.7205  137.5802  163.7955 C.3     1  UNL1        0.2393
     33 F         139.9090  137.5437  164.7101 F       1  UNL1       -0.2302
     34 C         138.0213  139.4573  162.1409 C.3     1  UNL1        0.2393
     35 F         137.4676  140.2910  163.2582 F       1  UNL1       -0.2302
@<TRIPOS>BOND
     1    11    12    1
     2    12    13   ar
     3    13    14   ar
     4    14    15   ar
     5    15     7    1
     6     7     8   am
     7     8     9    2
     8     8     1    1
     9     1     2   ar
    10     2     3   ar
    11     3    17    1
    12    17    18    1
    13    18    19   ar
    14    19    20   ar
    15    20    21   ar
    16    21    24    1
    17    24    25    2
    18    24    26   am
    19    26    27    1
    20    27    28    1
    21    28    29    1
    22    21    22   ar
    23    22    23   ar
    24     3     4   ar
    25     4     5   ar
    26     5    30    1
    27    30    31    1
    28    31    32    1
    29    32    33    1
    30    31    34    1
    31    34    35    1
    32     5     6   ar
    33    15    16   ar
    34    16    12   ar
    35     6     1   ar
    36    23    18   ar
    37    29    26    1
    38     7    10    1
