@<TRIPOS>MOLECULE
*****
 35 39 0 0 0
SMALL
GASTEIGER

@<TRIPOS>ATOM
      1 C         139.7255  141.8907  161.6251 C.2     1  UNL1        0.3281
      2 C         138.9012  140.8351  160.9498 C.2     1  UNL1        0.1261
      3 C         138.3449  141.0811  159.5787 C.2     1  UNL1        0.1915
      4 N         137.5039  140.2343  158.6700 N.2     1  UNL1       -0.0708
      5 C         137.2522  141.0125  157.4126 C.cat   1  UNL1        0.4211
      6 N         137.9376  142.3402  157.5442 N.2     1  UNL1       -0.0832
      7 C         138.6129  142.3826  158.8829 C.3     1  UNL1        0.3046
      8 C         139.4373  143.4382  159.5582 C.2     1  UNL1        0.2597
      9 N         139.9936  143.1922  160.9293 N.2     1  UNL1       -0.0366
     10 N         140.2819  141.6448  162.9963 N.pl3   1  UNL1       -0.1988
     11 H         140.6782  142.3872  163.5072 H       1  UNL1        0.2985
     12 C         139.1197  138.5382  165.1754 C.ar    1  UNL1        0.0748
     13 C         140.1394  137.5136  164.7747 C.ar    1  UNL1        0.0041
     14 C         141.2065  137.8660  163.7813 C.ar    1  UNL1        0.0034
     15 C         141.2540  139.2431  163.1884 C.ar    1  UNL1        0.0401
     16 C         140.2344  140.2677  163.5891 C.ar    1  UNL1        0.1356
     17 C         139.1672  139.9152  164.5826 C.ar    1  UNL1        0.0440
     18 F         136.9854  137.8334  167.1624 F       1  UNL1       -0.1659
     19 C         138.0526  138.1858  166.1688 C.3     1  UNL1        0.4187
     20 F         137.7347  139.6412  166.3436 F       1  UNL1       -0.1659
     21 F         138.3706  136.7303  165.9941 F       1  UNL1       -0.1659
     22 N         136.4550  140.5450  156.2311 N.pl3   1  UNL1       -0.1851
     23 H         136.9136  140.2844  155.3998 H       1  UNL1        0.2530
     24 C         134.9591  140.4746  156.3160 C.ar    1  UNL1        0.1937
     25 C         134.1155  141.2658  155.3608 C.ar    1  UNL1        0.0530
     26 C         132.6196  141.1954  155.4457 C.ar    1  UNL1        0.0205
     27 C         131.9672  140.3338  156.4859 C.ar    1  UNL1        0.0676
     28 C         132.8107  139.5427  157.4412 C.ar    1  UNL1        0.1161
     29 N         134.3067  139.6131  157.3563 N.ar    1  UNL1       -0.2136
     30 N         130.4712  140.2634  156.5709 N.pl3   1  UNL1       -0.3015
     31 C         129.8186  139.3467  157.5626 C.3     1  UNL1        0.1231
     32 C         128.3227  139.2764  157.6475 C.3     1  UNL1        0.1636
     33 O         127.4794  140.1227  156.7407 O.3     1  UNL1       -0.3501
     34 C         128.1320  141.0395  155.7489 C.3     1  UNL1        0.1636
     35 C         129.6279  141.1098  155.6640 C.3     1  UNL1        0.1231
@<TRIPOS>BOND
     1    18    19    1
     2    19    20    1
     3    19    21    1
     4    19    12    1
     5    12    13   ar
     6    13    14   ar
     7    14    15   ar
     8    15    16   ar
     9    16    10    1
    10    10     1    1
    11     1     2    2
    12     2     3    1
    13     3     4    2
    14     4     5    1
    15     5    22    1
    16    22    24    1
    17    24    25   ar
    18    25    26   ar
    19    26    27   ar
    20    27    30    1
    21    30    31    1
    22    31    32    1
    23    32    33    1
    24    33    34    1
    25    34    35    1
    26    27    28   ar
    27    28    29   ar
    28     5     6    2
    29     6     7    1
    30     7     8    1
    31     8     9    2
    32    16    17   ar
    33    17    12   ar
    34     9     1    1
    35     7     3    1
    36    29    24   ar
    37    35    30    1
    38    10    11    1
    39    22    23    1
@<TRIPOS>MOLECULE
*****
 35 39 0 0 0
SMALL
GASTEIGER

@<TRIPOS>ATOM
      1 C         138.1231  142.2673  161.7928 C.2     1  UNL1        0.3281
      2 C         137.9464  140.9885  161.0291 C.2     1  UNL1        0.1261
      3 C         138.4999  140.8615  159.6408 C.2     1  UNL1        0.1915
      4 N         138.4811  139.7337  158.6520 N.2     1  UNL1       -0.0708
      5 C         139.1997  140.1884  157.4164 C.cat   1  UNL1        0.4211
      6 N         139.6626  141.5973  157.6415 N.2     1  UNL1       -0.0832
      7 C         139.2301  142.0134  159.0162 C.3     1  UNL1        0.3046
      8 C         139.4068  143.2922  159.7799 C.2     1  UNL1        0.2597
      9 N         138.8533  143.4192  161.1682 N.2     1  UNL1       -0.0366
     10 N         137.5696  142.3944  163.1812 N.pl3   1  UNL1       -0.1988
     11 H         136.7614  142.9333  163.3416 H       1  UNL1        0.2985
     12 C         138.5381  139.6028  165.8306 C.ar    1  UNL1        0.0748
     13 C         139.6031  140.3122  166.6134 C.ar    1  UNL1        0.0041
     14 C         139.9902  141.7156  166.2521 C.ar    1  UNL1        0.0034
     15 C         139.3124  142.4097  165.1080 C.ar    1  UNL1        0.0401
     16 C         138.2474  141.7003  164.3253 C.ar    1  UNL1        0.1356
     17 C         137.8603  140.2969  164.6866 C.ar    1  UNL1        0.0440
     18 F         137.7637  136.7960  166.5533 F       1  UNL1       -0.1659
     19 C         138.1509  138.1995  166.1919 C.3     1  UNL1        0.4187
     20 F         137.3115  138.7215  167.3201 F       1  UNL1       -0.1659
     21 F         138.9904  137.6774  165.0638 F       1  UNL1       -0.1659
     22 N         139.4173  139.3767  156.1739 N.pl3   1  UNL1       -0.1851
     23 H         138.9974  139.6513  155.3268 H       1  UNL1        0.2530
     24 C         140.2745  138.1468  156.2220 C.ar    1  UNL1        0.1937
     25 C         139.9724  136.9863  155.3207 C.ar    1  UNL1        0.0530
     26 C         140.8296  135.7564  155.3688 C.ar    1  UNL1        0.0205
     27 C         141.9889  135.6868  156.3182 C.ar    1  UNL1        0.0676
     28 C         142.2909  136.8471  157.2194 C.ar    1  UNL1        0.1161
     29 N         141.4337  138.0772  157.1713 N.ar    1  UNL1       -0.2136
     30 N         142.8461  134.4567  156.3663 N.pl3   1  UNL1       -0.3015
     31 C         142.9038  133.5360  155.1835 C.3     1  UNL1        0.1231
     32 C         143.7610  132.3061  155.2316 C.3     1  UNL1        0.1636
     33 O         144.5604  131.9968  156.4625 O.3     1  UNL1       -0.3501
     34 C         144.5028  132.9174  157.6453 C.3     1  UNL1        0.1636
     35 C         143.6456  134.1474  157.5972 C.3     1  UNL1        0.1231
@<TRIPOS>BOND
     1    18    19    1
     2    19    20    1
     3    19    21    1
     4    19    12    1
     5    12    13   ar
     6    13    14   ar
     7    14    15   ar
     8    15    16   ar
     9    16    10    1
    10    10     1    1
    11     1     2    2
    12     2     3    1
    13     3     4    2
    14     4     5    1
    15     5    22    1
    16    22    24    1
    17    24    25   ar
    18    25    26   ar
    19    26    27   ar
    20    27    30    1
    21    30    31    1
    22    31    32    1
    23    32    33    1
    24    33    34    1
    25    34    35    1
    26    27    28   ar
    27    28    29   ar
    28     5     6    2
    29     6     7    1
    30     7     8    1
    31     8     9    2
    32    16    17   ar
    33    17    12   ar
    34     9     1    1
    35     7     3    1
    36    29    24   ar
    37    35    30    1
    38    10    11    1
    39    22    23    1
@<TRIPOS>MOLECULE
*****
 35 39 0 0 0
SMALL
GASTEIGER

@<TRIPOS>ATOM
      1 C         141.9248  138.0142  158.0787 C.2     1  UNL1        0.3281
      2 C         140.5128  138.1829  158.5559 C.2     1  UNL1        0.1261
      3 C         140.2361  138.4198  160.0110 C.2     1  UNL1        0.1915
      4 N         138.9580  138.6214  160.7699 N.2     1  UNL1       -0.0708
      5 C         139.3035  138.8143  162.2167 C.cat   1  UNL1        0.4211
      6 N         140.7951  138.7319  162.3521 N.2     1  UNL1       -0.0832
      7 C         141.3715  138.4881  160.9889 C.3     1  UNL1        0.3046
      8 C         142.7835  138.3195  160.5117 C.2     1  UNL1        0.2597
      9 N         143.0601  138.0825  159.0566 N.2     1  UNL1       -0.0366
     10 N         142.2015  137.7773  156.6236 N.pl3   1  UNL1       -0.1988
     11 H         142.1862  138.5311  155.9905 H       1  UNL1        0.2985
     12 C         143.5873  134.0605  156.5013 C.ar    1  UNL1        0.0748
     13 C         143.1013  133.6210  155.1520 C.ar    1  UNL1        0.0041
     14 C         142.3154  134.5669  154.2932 C.ar    1  UNL1        0.0034
     15 C         142.0154  135.9524  154.7837 C.ar    1  UNL1        0.0401
     16 C         142.5014  136.3919  156.1331 C.ar    1  UNL1        0.1356
     17 C         143.2874  135.4459  156.9919 C.ar    1  UNL1        0.0440
     18 F         145.1592  132.1687  158.2189 F       1  UNL1       -0.1659
     19 C         144.3732  133.1147  157.3601 C.3     1  UNL1        0.4187
     20 F         144.8010  132.3594  156.1368 F       1  UNL1       -0.1659
     21 F         143.9455  133.8699  158.5835 F       1  UNL1       -0.1659
     22 N         138.3285  139.0485  163.3324 N.pl3   1  UNL1       -0.1851
     23 H         137.3794  138.8154  163.2137 H       1  UNL1        0.2530
     24 C         138.7996  139.6377  164.6288 C.ar    1  UNL1        0.1937
     25 C         138.4425  138.9763  165.9270 C.ar    1  UNL1        0.0530
     26 C         138.9136  139.5656  167.2234 C.ar    1  UNL1        0.0205
     27 C         139.7419  140.8162  167.2218 C.ar    1  UNL1        0.0676
     28 C         140.0990  141.4775  165.9237 C.ar    1  UNL1        0.1161
     29 N         139.6279  140.8883  164.6272 N.ar    1  UNL1       -0.2136
     30 N         140.2130  141.4054  168.5183 N.pl3   1  UNL1       -0.3015
     31 C         140.5145  142.8719  168.6100 C.3     1  UNL1        0.1231
     32 C         140.9856  143.4610  169.9065 C.3     1  UNL1        0.1636
     33 O         141.1552  142.5837  171.1113 O.3     1  UNL1       -0.3501
     34 C         140.8536  141.1172  171.0196 C.3     1  UNL1        0.1636
     35 C         140.3826  140.5281  169.7231 C.3     1  UNL1        0.1231
@<TRIPOS>BOND
     1    18    19    1
     2    19    20    1
     3    19    21    1
     4    19    12    1
     5    12    13   ar
     6    13    14   ar
     7    14    15   ar
     8    15    16   ar
     9    16    10    1
    10    10     1    1
    11     1     2    2
    12     2     3    1
    13     3     4    2
    14     4     5    1
    15     5    22    1
    16    22    24    1
    17    24    25   ar
    18    25    26   ar
    19    26    27   ar
    20    27    30    1
    21    30    31    1
    22    31    32    1
    23    32    33    1
    24    33    34    1
    25    34    35    1
    26    27    28   ar
    27    28    29   ar
    28     5     6    2
    29     6     7    1
    30     7     8    1
    31     8     9    2
    32    16    17   ar
    33    17    12   ar
    34     9     1    1
    35     7     3    1
    36    29    24   ar
    37    35    30    1
    38    10    11    1
    39    22    23    1
@<TRIPOS>MOLECULE
*****
 35 39 0 0 0
SMALL
GASTEIGER

@<TRIPOS>ATOM
      1 C         140.4540  140.3817  161.8116 C.2     1  UNL1        0.3281
      2 C         140.0468  139.8065  160.4876 C.2     1  UNL1        0.1261
      3 C         141.0735  139.1685  159.5994 C.2     1  UNL1        0.1915
      4 N         140.9706  138.5217  158.2500 N.2     1  UNL1       -0.0708
      5 C         142.3408  138.0591  157.8519 C.cat   1  UNL1        0.4211
      6 N         143.2906  138.4201  158.9553 N.2     1  UNL1       -0.0832
      7 C         142.5074  139.1057  160.0354 C.3     1  UNL1        0.3046
      8 C         142.9146  139.6810  161.3595 C.2     1  UNL1        0.2597
      9 N         141.8879  140.3190  162.2476 N.2     1  UNL1       -0.0366
     10 N         139.4273  141.0198  162.6999 N.pl3   1  UNL1       -0.1988
     11 H         138.7804  141.6595  162.3238 H       1  UNL1        0.2985
     12 C         138.6596  139.0948  166.0844 C.ar    1  UNL1        0.0748
     13 C         139.3042  140.0095  167.0832 C.ar    1  UNL1        0.0041
     14 C         139.9899  141.2609  166.6210 C.ar    1  UNL1        0.0034
     15 C         140.0309  141.5977  165.1598 C.ar    1  UNL1        0.0401
     16 C         139.3863  140.6830  164.1610 C.ar    1  UNL1        0.1356
     17 C         138.7006  139.4315  164.6233 C.ar    1  UNL1        0.0440
     18 F         137.2883  136.5917  167.0088 F       1  UNL1       -0.1659
     19 C         137.9740  137.8433  166.5466 C.3     1  UNL1        0.4187
     20 F         138.6139  137.0788  165.4259 F       1  UNL1       -0.1659
     21 F         137.3341  138.6078  167.6673 F       1  UNL1       -0.1659
     22 N         142.6985  137.3587  156.5746 N.pl3   1  UNL1       -0.1851
     23 H         142.9729  137.8813  155.7867 H       1  UNL1        0.2530
     24 C         142.6381  135.8619  156.4978 C.ar    1  UNL1        0.1937
     25 C         141.8022  135.1981  155.4438 C.ar    1  UNL1        0.0530
     26 C         141.7418  133.7013  155.3670 C.ar    1  UNL1        0.0205
     27 C         142.5173  132.8682  156.3441 C.ar    1  UNL1        0.0676
     28 C         143.3532  133.5320  157.3980 C.ar    1  UNL1        0.1161
     29 N         143.4136  135.0288  157.4749 N.ar    1  UNL1       -0.2136
     30 N         142.4569  131.3714  156.2672 N.pl3   1  UNL1       -0.3015
     31 C         143.2705  130.5384  157.2127 C.3     1  UNL1        0.1231
     32 C         143.2101  129.0416  157.1358 C.3     1  UNL1        0.1636
     33 O         142.3360  128.3778  156.1134 O.3     1  UNL1       -0.3501
     34 C         141.5223  129.2108  155.1679 C.3     1  UNL1        0.1636
     35 C         141.5828  130.7076  155.2448 C.3     1  UNL1        0.1231
@<TRIPOS>BOND
     1    18    19    1
     2    19    20    1
     3    19    21    1
     4    19    12    1
     5    12    13   ar
     6    13    14   ar
     7    14    15   ar
     8    15    16   ar
     9    16    10    1
    10    10     1    1
    11     1     2    2
    12     2     3    1
    13     3     4    2
    14     4     5    1
    15     5    22    1
    16    22    24    1
    17    24    25   ar
    18    25    26   ar
    19    26    27   ar
    20    27    30    1
    21    30    31    1
    22    31    32    1
    23    32    33    1
    24    33    34    1
    25    34    35    1
    26    27    28   ar
    27    28    29   ar
    28     5     6    2
    29     6     7    1
    30     7     8    1
    31     8     9    2
    32    16    17   ar
    33    17    12   ar
    34     9     1    1
    35     7     3    1
    36    29    24   ar
    37    35    30    1
    38    10    11    1
    39    22    23    1
@<TRIPOS>MOLECULE
*****
 35 39 0 0 0
SMALL
GASTEIGER

@<TRIPOS>ATOM
      1 C         138.6472  140.3637  158.2617 C.2     1  UNL1        0.3281
      2 C         137.9759  140.3599  159.6031 C.2     1  UNL1        0.1261
      3 C         138.4498  139.4253  160.6763 C.2     1  UNL1        0.1915
      4 N         137.9876  139.1976  162.0850 N.2     1  UNL1       -0.0708
      5 C         138.8471  138.1260  162.6875 C.cat   1  UNL1        0.4211
      6 N         139.8405  137.6914  161.6510 N.2     1  UNL1       -0.0832
      7 C         139.5950  138.4944  160.4081 C.3     1  UNL1        0.3046
      8 C         140.2663  138.4981  159.0667 C.2     1  UNL1        0.2597
      9 N         139.7924  139.4328  157.9935 N.2     1  UNL1       -0.0366
     10 N         138.1732  141.2984  157.1884 N.pl3   1  UNL1       -0.1988
     11 H         138.5667  142.1974  157.1096 H       1  UNL1        0.2985
     12 C         134.6094  140.2986  155.7568 C.ar    1  UNL1        0.0748
     13 C         134.9530  139.9932  154.3290 C.ar    1  UNL1        0.0041
     14 C         136.3699  140.1229  153.8543 C.ar    1  UNL1        0.0034
     15 C         137.4434  140.5579  154.8075 C.ar    1  UNL1        0.0401
     16 C         137.0999  140.8633  156.2353 C.ar    1  UNL1        0.1356
     17 C         135.6828  140.7336  156.7100 C.ar    1  UNL1        0.0440
     18 F         131.7754  140.0392  156.7063 F       1  UNL1       -0.1659
     19 C         133.1925  140.1689  156.2315 C.3     1  UNL1        0.4187
     20 F         133.4872  138.7866  156.7336 F       1  UNL1       -0.1659
     21 F         132.8978  141.5513  155.7294 F       1  UNL1       -0.1659
     22 N         138.7331  137.5842  164.0815 N.pl3   1  UNL1       -0.1851
     23 H         138.3500  136.6899  164.2323 H       1  UNL1        0.2530
     24 C         139.2029  138.4049  165.2459 C.ar    1  UNL1        0.1937
     25 C         138.2391  138.7920  166.3281 C.ar    1  UNL1        0.0530
     26 C         138.7089  139.6127  167.4925 C.ar    1  UNL1        0.0205
     27 C         140.1426  140.0462  167.5746 C.ar    1  UNL1        0.0676
     28 C         141.1064  139.6591  166.4925 C.ar    1  UNL1        0.1161
     29 N         140.6366  138.8384  165.3280 N.ar    1  UNL1       -0.2136
     30 N         140.6124  140.8669  168.7391 N.pl3   1  UNL1       -0.3015
     31 C         141.1297  140.1900  169.9736 C.3     1  UNL1        0.1231
     32 C         141.5995  141.0107  171.1379 C.3     1  UNL1        0.1636
     33 O         141.5519  142.5083  171.0677 O.3     1  UNL1       -0.3501
     34 C         141.0346  143.1852  169.8332 C.3     1  UNL1        0.1636
     35 C         140.5648  142.3645  168.6689 C.3     1  UNL1        0.1231
@<TRIPOS>BOND
     1    18    19    1
     2    19    20    1
     3    19    21    1
     4    19    12    1
     5    12    13   ar
     6    13    14   ar
     7    14    15   ar
     8    15    16   ar
     9    16    10    1
    10    10     1    1
    11     1     2    2
    12     2     3    1
    13     3     4    2
    14     4     5    1
    15     5    22    1
    16    22    24    1
    17    24    25   ar
    18    25    26   ar
    19    26    27   ar
    20    27    30    1
    21    30    31    1
    22    31    32    1
    23    32    33    1
    24    33    34    1
    25    34    35    1
    26    27    28   ar
    27    28    29   ar
    28     5     6    2
    29     6     7    1
    30     7     8    1
    31     8     9    2
    32    16    17   ar
    33    17    12   ar
    34     9     1    1
    35     7     3    1
    36    29    24   ar
    37    35    30    1
    38    10    11    1
    39    22    23    1
@<TRIPOS>MOLECULE
*****
 35 39 0 0 0
SMALL
GASTEIGER

@<TRIPOS>ATOM
      1 C         137.7341  140.4319  162.4058 C.2     1  UNL1        0.3281
      2 C         138.0684  140.9242  161.0289 C.2     1  UNL1        0.1261
      3 C         138.7535  140.0142  160.0530 C.2     1  UNL1        0.1915
      4 N         139.2049  140.2182  158.6371 N.2     1  UNL1       -0.0708
      5 C         139.8347  138.9421  158.1629 C.cat   1  UNL1        0.4211
      6 N         139.7726  137.9494  159.2858 N.2     1  UNL1       -0.0832
      7 C         139.1044  138.6121  160.4539 C.3     1  UNL1        0.3046
      8 C         138.7702  138.1198  161.8308 C.2     1  UNL1        0.2597
      9 N         138.0851  139.0297  162.8068 N.2     1  UNL1       -0.0366
     10 N         137.0489  141.3418  163.3819 N.pl3   1  UNL1       -0.1988
     11 H         136.0710  141.3025  163.4886 H       1  UNL1        0.2985
     12 C         139.8189  142.7941  165.8249 C.ar    1  UNL1        0.0748
     13 C         139.4633  144.2513  165.8223 C.ar    1  UNL1        0.0041
     14 C         138.3030  144.7387  165.0062 C.ar    1  UNL1        0.0034
     15 C         137.4982  143.7689  164.1927 C.ar    1  UNL1        0.0401
     16 C         137.8537  142.3117  164.1953 C.ar    1  UNL1        0.1356
     17 C         139.0141  141.8242  165.0115 C.ar    1  UNL1        0.0440
     18 F         142.1395  141.8192  167.4572 F       1  UNL1       -0.1659
     19 C         140.9792  142.3066  166.6410 C.3     1  UNL1        0.4187
     20 F         141.6507  141.8156  165.3929 F       1  UNL1       -0.1659
     21 F         140.3076  142.7977  167.8891 F       1  UNL1       -0.1659
     22 N         140.4233  138.7009  156.8044 N.pl3   1  UNL1       -0.1851
     23 H         140.3671  139.3991  156.1126 H       1  UNL1        0.2530
     24 C         141.0974  137.3960  156.5000 C.ar    1  UNL1        0.1937
     25 C         140.4840  136.4471  155.5134 C.ar    1  UNL1        0.0530
     26 C         141.1582  135.1422  155.2090 C.ar    1  UNL1        0.0205
     27 C         142.4458  134.7862  155.8911 C.ar    1  UNL1        0.0676
     28 C         143.0592  135.7350  156.8777 C.ar    1  UNL1        0.1161
     29 N         142.3850  137.0400  157.1822 N.ar    1  UNL1       -0.2136
     30 N         143.1199  133.4812  155.5867 N.pl3   1  UNL1       -0.3015
     31 C         142.7373  132.7076  154.3599 C.3     1  UNL1        0.1231
     32 C         143.4114  131.4027  154.0554 C.3     1  UNL1        0.1636
     33 O         144.4683  130.8714  154.9778 O.3     1  UNL1       -0.3501
     34 C         144.8509  131.6450  156.2046 C.3     1  UNL1        0.1636
     35 C         144.1768  132.9499  156.5091 C.3     1  UNL1        0.1231
@<TRIPOS>BOND
     1    18    19    1
     2    19    20    1
     3    19    21    1
     4    19    12    1
     5    12    13   ar
     6    13    14   ar
     7    14    15   ar
     8    15    16   ar
     9    16    10    1
    10    10     1    1
    11     1     2    2
    12     2     3    1
    13     3     4    2
    14     4     5    1
    15     5    22    1
    16    22    24    1
    17    24    25   ar
    18    25    26   ar
    19    26    27   ar
    20    27    30    1
    21    30    31    1
    22    31    32    1
    23    32    33    1
    24    33    34    1
    25    34    35    1
    26    27    28   ar
    27    28    29   ar
    28     5     6    2
    29     6     7    1
    30     7     8    1
    31     8     9    2
    32    16    17   ar
    33    17    12   ar
    34     9     1    1
    35     7     3    1
    36    29    24   ar
    37    35    30    1
    38    10    11    1
    39    22    23    1
@<TRIPOS>MOLECULE
*****
 35 39 0 0 0
SMALL
GASTEIGER

@<TRIPOS>ATOM
      1 C         138.5051  141.3895  162.1125 C.2     1  UNL1        0.3281
      2 C         139.7755  141.3981  161.3149 C.2     1  UNL1        0.1261
      3 C         139.8512  140.6502  160.0170 C.2     1  UNL1        0.1915
      4 N         140.9595  140.4780  159.0209 N.2     1  UNL1       -0.0708
      5 C         140.4499  139.6150  157.9049 C.cat   1  UNL1        0.4211
      6 N         139.0266  139.2538  158.2112 N.2     1  UNL1       -0.0832
      7 C         138.6566  139.8936  159.5165 C.3     1  UNL1        0.3046
      8 C         137.3862  139.8850  160.3140 C.2     1  UNL1        0.2597
      9 N         137.3105  140.6329  161.6120 N.2     1  UNL1       -0.0366
     10 N         138.4294  142.1375  163.4105 N.pl3   1  UNL1       -0.1988
     11 H         138.1510  143.0818  163.4190 H       1  UNL1        0.2985
     12 C         138.5538  139.4030  166.2840 C.ar    1  UNL1        0.0748
     13 C         139.4743  140.0652  167.2658 C.ar    1  UNL1        0.0041
     14 C         140.0466  141.4182  166.9626 C.ar    1  UNL1        0.0034
     15 C         139.6982  142.1090  165.6774 C.ar    1  UNL1        0.0401
     16 C         138.7777  141.4468  164.6956 C.ar    1  UNL1        0.1356
     17 C         138.2055  140.0937  164.9989 C.ar    1  UNL1        0.0440
     18 F         137.4093  136.6970  166.8904 F       1  UNL1       -0.1659
     19 C         137.9816  138.0500  166.5872 C.3     1  UNL1        0.4187
     20 F         138.7060  137.4786  165.4046 F       1  UNL1       -0.1659
     21 F         137.2571  138.6215  167.7697 F       1  UNL1       -0.1659
     22 N         141.2270  139.1881  156.6950 N.pl3   1  UNL1       -0.1851
     23 H         141.5291  139.8599  156.0418 H       1  UNL1        0.2530
     24 C         141.5439  137.7378  156.4805 C.ar    1  UNL1        0.1937
     25 C         142.7058  137.1106  157.1924 C.ar    1  UNL1        0.0530
     26 C         143.0227  135.6603  156.9778 C.ar    1  UNL1        0.0205
     27 C         142.1778  134.8371  156.0513 C.ar    1  UNL1        0.0676
     28 C         141.0160  135.4642  155.3394 C.ar    1  UNL1        0.1161
     29 N         140.6990  136.9146  155.5539 N.ar    1  UNL1       -0.2136
     30 N         142.4947  133.3867  155.8367 N.pl3   1  UNL1       -0.3015
     31 C         143.7941  132.8221  156.3295 C.3     1  UNL1        0.1231
     32 C         144.1110  131.3717  156.1149 C.3     1  UNL1        0.1636
     33 O         143.1285  130.4860  155.4076 O.3     1  UNL1       -0.3501
     34 C         141.8292  131.0506  154.9149 C.3     1  UNL1        0.1636
     35 C         141.5123  132.5010  155.1295 C.3     1  UNL1        0.1231
@<TRIPOS>BOND
     1    18    19    1
     2    19    20    1
     3    19    21    1
     4    19    12    1
     5    12    13   ar
     6    13    14   ar
     7    14    15   ar
     8    15    16   ar
     9    16    10    1
    10    10     1    1
    11     1     2    2
    12     2     3    1
    13     3     4    2
    14     4     5    1
    15     5    22    1
    16    22    24    1
    17    24    25   ar
    18    25    26   ar
    19    26    27   ar
    20    27    30    1
    21    30    31    1
    22    31    32    1
    23    32    33    1
    24    33    34    1
    25    34    35    1
    26    27    28   ar
    27    28    29   ar
    28     5     6    2
    29     6     7    1
    30     7     8    1
    31     8     9    2
    32    16    17   ar
    33    17    12   ar
    34     9     1    1
    35     7     3    1
    36    29    24   ar
    37    35    30    1
    38    10    11    1
    39    22    23    1
@<TRIPOS>MOLECULE
*****
 35 39 0 0 0
SMALL
GASTEIGER

@<TRIPOS>ATOM
      1 C         141.3723  137.8772  157.6999 C.2     1  UNL1        0.3281
      2 C         142.7373  137.9084  158.3207 C.2     1  UNL1        0.1261
      3 C         142.9028  138.3425  159.7469 C.2     1  UNL1        0.1915
      4 N         144.1139  138.4736  160.6222 N.2     1  UNL1       -0.0708
      5 C         143.6629  138.9574  161.9684 C.cat   1  UNL1        0.4211
      6 N         142.1729  139.1255  161.9252 N.2     1  UNL1       -0.0832
      7 C         141.7032  138.7454  160.5523 C.3     1  UNL1        0.3046
      8 C         140.3381  138.7142  159.9314 C.2     1  UNL1        0.2597
      9 N         140.1726  138.2801  158.5052 N.2     1  UNL1       -0.0366
     10 N         141.2068  137.4431  156.2736 N.pl3   1  UNL1       -0.1988
     11 H         140.7450  138.0290  155.6311 H       1  UNL1        0.2985
     12 C         143.2597  134.0469  156.2415 C.ar    1  UNL1        0.0748
     13 C         142.8209  133.4628  154.9314 C.ar    1  UNL1        0.0041
     14 C         141.8441  134.2054  154.0688 C.ar    1  UNL1        0.0034
     15 C         141.3060  135.5322  154.5161 C.ar    1  UNL1        0.0401
     16 C         141.7448  136.1163  155.8262 C.ar    1  UNL1        0.1356
     17 C         142.7217  135.3736  156.6889 C.ar    1  UNL1        0.0440
     18 F         145.2135  132.5616  157.9668 F       1  UNL1       -0.1659
     19 C         144.2365  133.3043  157.1042 C.3     1  UNL1        0.4187
     20 F         144.7237  132.5496  155.9029 F       1  UNL1       -0.1659
     21 F         143.7494  134.0589  158.3054 F       1  UNL1       -0.1659
     22 N         144.5465  139.2261  163.1503 N.pl3   1  UNL1       -0.1851
     23 H         145.4859  138.9315  163.1397 H       1  UNL1        0.2530
     24 C         143.9991  139.9436  164.3484 C.ar    1  UNL1        0.1937
     25 C         143.4176  139.1627  165.4895 C.ar    1  UNL1        0.0530
     26 C         142.8702  139.8802  166.6875 C.ar    1  UNL1        0.0205
     27 C         142.9041  141.3787  166.7446 C.ar    1  UNL1        0.0676
     28 C         143.4856  142.1597  165.6036 C.ar    1  UNL1        0.1161
     29 N         144.0331  141.4422  164.4054 N.ar    1  UNL1       -0.2136
     30 N         142.3566  142.0963  167.9427 N.pl3   1  UNL1       -0.3015
     31 C         140.9403  142.5901  167.9387 C.3     1  UNL1        0.1231
     32 C         140.3929  143.3076  169.1368 C.3     1  UNL1        0.1636
     33 O         141.2618  143.5312  170.3389 O.3     1  UNL1       -0.3501
     34 C         142.6781  143.0374  170.3429 C.3     1  UNL1        0.1636
     35 C         143.2255  142.3199  169.1448 C.3     1  UNL1        0.1231
@<TRIPOS>BOND
     1    18    19    1
     2    19    20    1
     3    19    21    1
     4    19    12    1
     5    12    13   ar
     6    13    14   ar
     7    14    15   ar
     8    15    16   ar
     9    16    10    1
    10    10     1    1
    11     1     2    2
    12     2     3    1
    13     3     4    2
    14     4     5    1
    15     5    22    1
    16    22    24    1
    17    24    25   ar
    18    25    26   ar
    19    26    27   ar
    20    27    30    1
    21    30    31    1
    22    31    32    1
    23    32    33    1
    24    33    34    1
    25    34    35    1
    26    27    28   ar
    27    28    29   ar
    28     5     6    2
    29     6     7    1
    30     7     8    1
    31     8     9    2
    32    16    17   ar
    33    17    12   ar
    34     9     1    1
    35     7     3    1
    36    29    24   ar
    37    35    30    1
    38    10    11    1
    39    22    23    1
@<TRIPOS>MOLECULE
*****
 35 39 0 0 0
SMALL
GASTEIGER

@<TRIPOS>ATOM
      1 C         140.2641  143.3781  159.6587 C.2     1  UNL1        0.3281
      2 C         139.5261  143.5070  158.3592 C.2     1  UNL1        0.1261
      3 C         138.5698  142.4340  157.9302 C.2     1  UNL1        0.1915
      4 N         137.7069  142.2870  156.7121 N.2     1  UNL1       -0.0708
      5 C         136.9554  140.9941  156.8296 C.cat   1  UNL1        0.4211
      6 N         137.3538  140.3422  158.1204 N.2     1  UNL1       -0.0832
      7 C         138.3516  141.2320  158.8006 C.3     1  UNL1        0.3046
      8 C         139.0896  141.1031  160.1001 C.2     1  UNL1        0.2597
      9 N         140.0458  142.1761  160.5291 N.2     1  UNL1       -0.0366
     10 N         141.2204  144.4512  160.0878 N.pl3   1  UNL1       -0.1988
     11 H         141.4197  145.2030  159.4842 H       1  UNL1        0.2985
     12 C         143.7550  143.4695  162.9795 C.ar    1  UNL1        0.0748
     13 C         143.1779  144.2340  164.1339 C.ar    1  UNL1        0.0041
     14 C         141.9484  145.0708  163.9396 C.ar    1  UNL1        0.0034
     15 C         141.2958  145.1433  162.5908 C.ar    1  UNL1        0.0401
     16 C         141.8729  144.3788  161.4365 C.ar    1  UNL1        0.1356
     17 C         143.1025  143.5419  161.6308 C.ar    1  UNL1        0.0440
     18 F         146.2142  141.7957  163.3681 F       1  UNL1       -0.1659
     19 C         144.9845  142.6326  163.1738 C.3     1  UNL1        0.4187
     20 F         145.0197  143.0206  164.6223 F       1  UNL1       -0.1659
     21 F         144.9493  142.2446  161.7253 F       1  UNL1       -0.1659
     22 N         135.9772  140.4490  155.8316 N.pl3   1  UNL1       -0.1851
     23 H         136.2827  140.1959  154.9306 H       1  UNL1        0.2530
     24 C         134.5336  140.2896  156.2064 C.ar    1  UNL1        0.1937
     25 C         133.4773  141.0543  155.4650 C.ar    1  UNL1        0.0530
     26 C         132.0337  140.8949  155.8398 C.ar    1  UNL1        0.0205
     27 C         131.6463  139.9708  156.9560 C.ar    1  UNL1        0.0676
     28 C         132.7024  139.2061  157.6974 C.ar    1  UNL1        0.1161
     29 N         134.1461  139.3655  157.3226 N.ar    1  UNL1       -0.2136
     30 N         130.2026  139.8114  157.3308 N.pl3   1  UNL1       -0.3015
     31 C         129.8204  138.9384  158.4890 C.3     1  UNL1        0.1231
     32 C         128.3767  138.7790  158.8638 C.3     1  UNL1        0.1636
     33 O         127.3153  139.4927  158.0802 O.3     1  UNL1       -0.3501
     34 C         127.6975  140.3657  156.9219 C.3     1  UNL1        0.1636
     35 C         129.1411  140.5251  156.5472 C.3     1  UNL1        0.1231
@<TRIPOS>BOND
     1    18    19    1
     2    19    20    1
     3    19    21    1
     4    19    12    1
     5    12    13   ar
     6    13    14   ar
     7    14    15   ar
     8    15    16   ar
     9    16    10    1
    10    10     1    1
    11     1     2    2
    12     2     3    1
    13     3     4    2
    14     4     5    1
    15     5    22    1
    16    22    24    1
    17    24    25   ar
    18    25    26   ar
    19    26    27   ar
    20    27    30    1
    21    30    31    1
    22    31    32    1
    23    32    33    1
    24    33    34    1
    25    34    35    1
    26    27    28   ar
    27    28    29   ar
    28     5     6    2
    29     6     7    1
    30     7     8    1
    31     8     9    2
    32    16    17   ar
    33    17    12   ar
    34     9     1    1
    35     7     3    1
    36    29    24   ar
    37    35    30    1
    38    10    11    1
    39    22    23    1
