@<TRIPOS>MOLECULE
*****
 32 35 0 0 0
SMALL
GASTEIGER

@<TRIPOS>ATOM
      1 N         141.4127  138.1283  157.9778 N.3     1  UNL1       -0.2689
      2 C         142.4779  138.5402  158.9503 C.3     1  UNL1        0.0741
      3 C         142.1026  138.9565  160.3417 C.3     1  UNL1        0.0369
      4 C         140.6623  138.9609  160.7605 C.3     1  UNL1        0.0747
      5 C         139.5972  138.5490  159.7879 C.3     1  UNL1        0.0369
      6 C         139.9724  138.1327  158.3966 C.3     1  UNL1        0.0741
      7 N         140.2871  139.3771  162.1519 N.am    1  UNL1       -0.2999
      8 C         140.3415  138.3820  163.2729 C.2     1  UNL1        0.2806
      9 O         140.7712  136.9705  163.0025 O.2     1  UNL1       -0.2668
     10 H         140.0050  140.3035  162.3293 H       1  UNL1        0.1498
     11 C         139.9663  138.7983  164.6643 C.ar    1  UNL1        0.2014
     12 C         138.7346  138.2353  165.3091 C.ar    1  UNL1        0.0843
     13 C         138.3593  138.6516  166.7004 C.ar    1  UNL1        0.2018
     14 O         137.1276  138.0885  167.3452 O.2     1  UNL1       -0.2864
     15 C         139.2158  139.6309  167.4470 C.ar    1  UNL1        0.0737
     16 C         138.8406  140.0472  168.8383 C.ar    1  UNL1        0.0085
     17 C         139.6971  141.0265  169.5848 C.ar    1  UNL1        0.0299
     18 C         140.9288  141.5895  168.9400 C.ar    1  UNL1        0.1432
     19 F         141.7853  142.5689  169.6866 F       1  UNL1       -0.2041
     20 C         141.3041  141.1732  167.5487 C.ar    1  UNL1        0.0672
     21 C         140.4476  140.1939  166.8022 C.ar    1  UNL1        0.1508
     22 O         140.8228  139.7776  165.4108 O.2     1  UNL1       -0.4486
     23 C         141.7879  137.7120  156.5864 C.3     1  UNL1        0.0992
     24 C         142.6502  133.3880  155.6869 C.ar    1  UNL1        0.1659
     25 C         141.5066  134.0817  155.0080 C.ar    1  UNL1        0.0390
     26 C         141.2192  135.5230  155.3079 C.ar    1  UNL1        0.0003
     27 C         142.0754  136.2707  156.2866 C.ar    1  UNL1       -0.0037
     28 C         143.2189  135.5770  156.9654 C.ar    1  UNL1        0.0299
     29 C         143.5064  134.1356  156.6656 C.ar    1  UNL1        0.1735
     30 F         144.6500  133.4419  157.3445 F       1  UNL1       -0.2010
     31 C         142.7076  130.9016  156.4382 C.3     1  UNL1        0.2526
     32 O         142.9376  131.9466  155.3871 O.3     1  UNL1       -0.4692
@<TRIPOS>BOND
     1    31    32    1
     2    32    24    1
     3    24    25   ar
     4    25    26   ar
     5    26    27   ar
     6    27    23    1
     7    23     1    1
     8     1     2    1
     9     2     3    1
    10     3     4    1
    11     4     7    1
    12     7     8   am
    13     8     9    2
    14     8    11    1
    15    11    12   ar
    16    12    13   ar
    17    13    14    2
    18    13    15   ar
    19    15    16   ar
    20    16    17   ar
    21    17    18   ar
    22    18    19    1
    23    18    20   ar
    24    20    21   ar
    25    21    22   ar
    26     4     5    1
    27     5     6    1
    28    27    28   ar
    29    28    29   ar
    30    29    30    1
    31    29    24   ar
    32     6     1    1
    33    22    11   ar
    34    21    15   ar
    35     7    10    1
@<TRIPOS>MOLECULE
*****
 32 35 0 0 0
SMALL
GASTEIGER

@<TRIPOS>ATOM
      1 N         143.7480  141.9305  162.4815 N.3     1  UNL1       -0.2689
      2 C         143.2170  142.3082  161.1305 C.3     1  UNL1        0.0741
      3 C         143.1594  141.2856  160.0345 C.3     1  UNL1        0.0369
      4 C         143.6327  139.8853  160.2897 C.3     1  UNL1        0.0747
      5 C         144.1637  139.5076  161.6407 C.3     1  UNL1        0.0369
      6 C         144.2214  140.5301  162.7366 C.3     1  UNL1        0.0741
      7 N         143.5751  138.8628  159.1938 N.am    1  UNL1       -0.2999
      8 C         142.2966  138.1274  158.9206 C.2     1  UNL1        0.2806
      9 O         141.0757  138.4146  159.7433 O.2     1  UNL1       -0.2668
     10 H         144.3764  138.6743  158.6537 H       1  UNL1        0.1498
     11 C         142.2390  137.1049  157.8246 C.ar    1  UNL1        0.2014
     12 C         141.2670  137.2709  156.6943 C.ar    1  UNL1        0.0843
     13 C         141.2093  136.2484  155.5983 C.ar    1  UNL1        0.2018
     14 O         140.2373  136.4145  154.4680 O.2     1  UNL1       -0.2864
     15 C         142.1237  135.0598  155.6327 C.ar    1  UNL1        0.0737
     16 C         142.0661  134.0373  154.5367 C.ar    1  UNL1        0.0085
     17 C         142.9805  132.8488  154.5711 C.ar    1  UNL1        0.0299
     18 C         143.9525  132.6827  155.7014 C.ar    1  UNL1        0.1432
     19 F         144.8669  131.4941  155.7357 F       1  UNL1       -0.2041
     20 C         144.0101  133.7052  156.7973 C.ar    1  UNL1        0.0672
     21 C         143.0958  134.8938  156.7630 C.ar    1  UNL1        0.1508
     22 O         143.1534  135.9163  157.8590 O.2     1  UNL1       -0.4486
     23 C         143.8056  142.9530  163.5774 C.3     1  UNL1        0.0992
     24 C         141.2659  142.4518  167.2583 C.ar    1  UNL1        0.1659
     25 C         140.6386  142.8900  165.9682 C.ar    1  UNL1        0.0390
     26 C         141.4852  143.0570  164.7413 C.ar    1  UNL1        0.0003
     27 C         142.9591  142.7859  164.8044 C.ar    1  UNL1       -0.0037
     28 C         143.5864  142.3477  166.0945 C.ar    1  UNL1        0.0299
     29 C         142.7398  142.1807  167.3214 C.ar    1  UNL1        0.1735
     30 F         143.3672  141.7424  168.6116 F       1  UNL1       -0.2010
     31 C         140.3717  143.3721  169.5174 C.3     1  UNL1        0.2526
     32 O         140.4194  142.2847  168.4852 O.3     1  UNL1       -0.4692
@<TRIPOS>BOND
     1    31    32    1
     2    32    24    1
     3    24    25   ar
     4    25    26   ar
     5    26    27   ar
     6    27    23    1
     7    23     1    1
     8     1     2    1
     9     2     3    1
    10     3     4    1
    11     4     7    1
    12     7     8   am
    13     8     9    2
    14     8    11    1
    15    11    12   ar
    16    12    13   ar
    17    13    14    2
    18    13    15   ar
    19    15    16   ar
    20    16    17   ar
    21    17    18   ar
    22    18    19    1
    23    18    20   ar
    24    20    21   ar
    25    21    22   ar
    26     4     5    1
    27     5     6    1
    28    27    28   ar
    29    28    29   ar
    30    29    30    1
    31    29    24   ar
    32     6     1    1
    33    22    11   ar
    34    21    15   ar
    35     7    10    1
@<TRIPOS>MOLECULE
*****
 32 35 0 0 0
SMALL
GASTEIGER

@<TRIPOS>ATOM
      1 N         140.4784  145.3772  156.3331 N.3     1  UNL1       -0.2689
      2 C         141.6375  145.6684  157.2396 C.3     1  UNL1        0.0741
      3 C         141.7695  144.9419  158.5453 C.3     1  UNL1        0.0369
      4 C         140.7424  143.9243  158.9445 C.3     1  UNL1        0.0747
      5 C         139.5833  143.6330  158.0381 C.3     1  UNL1        0.0369
      6 C         139.4513  144.3594  156.7324 C.3     1  UNL1        0.0741
      7 N         140.8745  143.1978  160.2502 N.am    1  UNL1       -0.2999
      8 C         140.1325  143.6866  161.4588 C.2     1  UNL1        0.2806
      9 O         139.2586  144.9018  161.3617 O.2     1  UNL1       -0.2668
     10 H         141.4481  142.4002  160.3140 H       1  UNL1        0.1498
     11 C         140.2646  142.9601  162.7645 C.ar    1  UNL1        0.2014
     12 C         141.4575  143.2033  163.6408 C.ar    1  UNL1        0.0843
     13 C         141.5896  142.4769  164.9464 C.ar    1  UNL1        0.2018
     14 O         142.7825  142.7201  165.8227 O.2     1  UNL1       -0.2864
     15 C         140.5288  141.5072  165.3759 C.ar    1  UNL1        0.0737
     16 C         140.6609  140.7808  166.6816 C.ar    1  UNL1        0.0085
     17 C         139.6001  139.8111  167.1110 C.ar    1  UNL1        0.0299
     18 C         138.4072  139.5679  166.2347 C.ar    1  UNL1        0.1432
     19 F         137.3463  138.5982  166.6642 F       1  UNL1       -0.2041
     20 C         138.2751  140.2943  164.9291 C.ar    1  UNL1        0.0672
     21 C         139.3359  141.2640  164.4997 C.ar    1  UNL1        0.1508
     22 O         139.2038  141.9905  163.1939 O.2     1  UNL1       -0.4486
     23 C         140.3464  146.1036  155.0275 C.3     1  UNL1        0.0992
     24 C         138.9059  150.3663  154.9598 C.ar    1  UNL1        0.1659
     25 C         139.7543  149.8434  153.8388 C.ar    1  UNL1        0.0390
     26 C         140.2345  148.4225  153.8613 C.ar    1  UNL1        0.0003
     27 C         139.8662  147.5245  155.0049 C.ar    1  UNL1       -0.0037
     28 C         139.0178  148.0473  156.1259 C.ar    1  UNL1        0.0299
     29 C         138.5376  149.4682  156.1034 C.ar    1  UNL1        0.1735
     30 F         137.6892  149.9910  157.2245 F       1  UNL1       -0.2010
     31 C         139.0800  152.7856  154.0290 C.3     1  UNL1        0.2526
     32 O         138.4257  151.7871  154.9373 O.3     1  UNL1       -0.4692
@<TRIPOS>BOND
     1    31    32    1
     2    32    24    1
     3    24    25   ar
     4    25    26   ar
     5    26    27   ar
     6    27    23    1
     7    23     1    1
     8     1     2    1
     9     2     3    1
    10     3     4    1
    11     4     7    1
    12     7     8   am
    13     8     9    2
    14     8    11    1
    15    11    12   ar
    16    12    13   ar
    17    13    14    2
    18    13    15   ar
    19    15    16   ar
    20    16    17   ar
    21    17    18   ar
    22    18    19    1
    23    18    20   ar
    24    20    21   ar
    25    21    22   ar
    26     4     5    1
    27     5     6    1
    28    27    28   ar
    29    28    29   ar
    30    29    30    1
    31    29    24   ar
    32     6     1    1
    33    22    11   ar
    34    21    15   ar
    35     7    10    1
@<TRIPOS>MOLECULE
*****
 32 35 0 0 0
SMALL
GASTEIGER

@<TRIPOS>ATOM
      1 N         141.8991  137.8013  162.1966 N.3     1  UNL1       -0.2689
      2 C         141.0205  138.2089  161.0513 C.3     1  UNL1        0.0741
      3 C         141.6270  138.8071  159.8166 C.3     1  UNL1        0.0369
      4 C         143.1122  138.9975  159.7273 C.3     1  UNL1        0.0747
      5 C         143.9908  138.5899  160.8726 C.3     1  UNL1        0.0369
      6 C         143.3844  137.9919  162.1073 C.3     1  UNL1        0.0741
      7 N         143.7186  139.5956  158.4926 N.am    1  UNL1       -0.2999
      8 C         144.0045  141.0670  158.4346 C.2     1  UNL1        0.2806
      9 O         143.6839  141.9403  159.6112 O.2     1  UNL1       -0.2668
     10 H         143.9291  139.0225  157.7203 H       1  UNL1        0.1498
     11 C         144.6110  141.6651  157.1998 C.ar    1  UNL1        0.2014
     12 C         143.7495  142.4193  156.2308 C.ar    1  UNL1        0.0843
     13 C         144.3559  143.0173  154.9961 C.ar    1  UNL1        0.2018
     14 O         143.4944  143.7715  154.0271 O.2     1  UNL1       -0.2864
     15 C         145.8239  142.8612  154.7304 C.ar    1  UNL1        0.0737
     16 C         146.4304  143.4593  153.4957 C.ar    1  UNL1        0.0085
     17 C         147.8983  143.3031  153.2300 C.ar    1  UNL1        0.0299
     18 C         148.7599  142.5489  154.1990 C.ar    1  UNL1        0.1432
     19 F         150.2279  142.3928  153.9333 F       1  UNL1       -0.2041
     20 C         148.1535  141.9509  155.4337 C.ar    1  UNL1        0.0672
     21 C         146.6855  142.1070  155.6994 C.ar    1  UNL1        0.1508
     22 O         146.0790  141.5089  156.9341 O.2     1  UNL1       -0.4486
     23 C         141.2927  137.2033  163.4313 C.3     1  UNL1        0.0992
     24 C         140.0305  139.8641  166.8338 C.ar    1  UNL1        0.1659
     25 C         141.4796  139.7600  166.4608 C.ar    1  UNL1        0.0390
     26 C         141.9003  138.8731  165.3266 C.ar    1  UNL1        0.0003
     27 C         140.8719  138.0902  164.5655 C.ar    1  UNL1       -0.0037
     28 C         139.4228  138.1943  164.9384 C.ar    1  UNL1        0.0299
     29 C         139.0021  139.0812  166.0726 C.ar    1  UNL1        0.1735
     30 F         137.5529  139.1852  166.4456 F       1  UNL1       -0.2010
     31 C         139.5881  140.2170  169.3695 C.3     1  UNL1        0.2526
     32 O         139.6097  140.7510  167.9679 O.3     1  UNL1       -0.4692
@<TRIPOS>BOND
     1    31    32    1
     2    32    24    1
     3    24    25   ar
     4    25    26   ar
     5    26    27   ar
     6    27    23    1
     7    23     1    1
     8     1     2    1
     9     2     3    1
    10     3     4    1
    11     4     7    1
    12     7     8   am
    13     8     9    2
    14     8    11    1
    15    11    12   ar
    16    12    13   ar
    17    13    14    2
    18    13    15   ar
    19    15    16   ar
    20    16    17   ar
    21    17    18   ar
    22    18    19    1
    23    18    20   ar
    24    20    21   ar
    25    21    22   ar
    26     4     5    1
    27     5     6    1
    28    27    28   ar
    29    28    29   ar
    30    29    30    1
    31    29    24   ar
    32     6     1    1
    33    22    11   ar
    34    21    15   ar
    35     7    10    1
@<TRIPOS>MOLECULE
*****
 32 35 0 0 0
SMALL
GASTEIGER

@<TRIPOS>ATOM
      1 N         143.8252  142.1784  161.3984 N.3     1  UNL1       -0.2689
      2 C         143.3907  142.4351  159.9859 C.3     1  UNL1        0.0741
      3 C         143.3366  141.3052  159.0007 C.3     1  UNL1        0.0369
      4 C         143.7170  139.9187  159.4282 C.3     1  UNL1        0.0747
      5 C         144.1515  139.6620  160.8407 C.3     1  UNL1        0.0369
      6 C         144.2056  140.7918  161.8258 C.3     1  UNL1        0.0741
      7 N         143.6629  138.7888  158.4430 N.am    1  UNL1       -0.2999
      8 C         142.4220  137.9543  158.3264 C.2     1  UNL1        0.2806
      9 O         141.2351  138.2495  159.1948 O.2     1  UNL1       -0.2668
     10 H         144.4418  138.5950  157.8730 H       1  UNL1        0.1498
     11 C         142.3679  136.8244  157.3412 C.ar    1  UNL1        0.2014
     12 C         141.4135  136.8821  156.1854 C.ar    1  UNL1        0.0843
     13 C         141.3594  135.7523  155.2003 C.ar    1  UNL1        0.2018
     14 O         140.4049  135.8100  154.0446 O.2     1  UNL1       -0.2864
     15 C         142.2597  134.5647  155.3708 C.ar    1  UNL1        0.0737
     16 C         142.2057  133.4349  154.3857 C.ar    1  UNL1        0.0085
     17 C         143.1060  132.2474  154.5562 C.ar    1  UNL1        0.0299
     18 C         144.0604  132.1897  155.7120 C.ar    1  UNL1        0.1432
     19 F         144.9608  131.0021  155.8825 F       1  UNL1       -0.2041
     20 C         144.1145  133.3195  156.6971 C.ar    1  UNL1        0.0672
     21 C         143.2142  134.5070  156.5266 C.ar    1  UNL1        0.1508
     22 O         143.2682  135.6369  157.5117 O.2     1  UNL1       -0.4486
     23 C         143.8793  143.3083  162.3835 C.3     1  UNL1        0.0992
     24 C         140.1226  144.6720  164.4517 C.ar    1  UNL1        0.1659
     25 C         140.5602  145.3335  163.1786 C.ar    1  UNL1        0.0390
     26 C         141.8124  144.8789  162.4892 C.ar    1  UNL1        0.0003
     27 C         142.6270  143.7629  163.0729 C.ar    1  UNL1       -0.0037
     28 C         142.1895  143.1014  164.3461 C.ar    1  UNL1        0.0299
     29 C         140.9372  143.5560  165.0355 C.ar    1  UNL1        0.1735
     30 F         140.4997  142.8945  166.3087 F       1  UNL1       -0.2010
     31 C         137.6181  144.3073  165.0387 C.3     1  UNL1        0.2526
     32 O         138.8704  145.1266  165.1411 O.3     1  UNL1       -0.4692
@<TRIPOS>BOND
     1    31    32    1
     2    32    24    1
     3    24    25   ar
     4    25    26   ar
     5    26    27   ar
     6    27    23    1
     7    23     1    1
     8     1     2    1
     9     2     3    1
    10     3     4    1
    11     4     7    1
    12     7     8   am
    13     8     9    2
    14     8    11    1
    15    11    12   ar
    16    12    13   ar
    17    13    14    2
    18    13    15   ar
    19    15    16   ar
    20    16    17   ar
    21    17    18   ar
    22    18    19    1
    23    18    20   ar
    24    20    21   ar
    25    21    22   ar
    26     4     5    1
    27     5     6    1
    28    27    28   ar
    29    28    29   ar
    30    29    30    1
    31    29    24   ar
    32     6     1    1
    33    22    11   ar
    34    21    15   ar
    35     7    10    1
@<TRIPOS>MOLECULE
*****
 32 35 0 0 0
SMALL
GASTEIGER

@<TRIPOS>ATOM
      1 N         141.1581  138.9377  158.2674 N.3     1  UNL1       -0.2689
      2 C         142.3475  139.6593  158.8283 C.3     1  UNL1        0.0741
      3 C         142.3698  140.0578  160.2743 C.3     1  UNL1        0.0369
      4 C         141.2026  139.7347  161.1593 C.3     1  UNL1        0.0747
      5 C         140.0132  139.0131  160.5984 C.3     1  UNL1        0.0369
      6 C         139.9909  138.6146  159.1525 C.3     1  UNL1        0.0741
      7 N         141.2249  140.1331  162.6052 N.am    1  UNL1       -0.2999
      8 C         141.9310  139.2716  163.6098 C.2     1  UNL1        0.2806
      9 O         142.6147  138.0116  163.1685 O.2     1  UNL1       -0.2668
     10 H         140.7762  140.9602  162.8949 H       1  UNL1        0.1498
     11 C         141.9532  139.6701  165.0558 C.ar    1  UNL1        0.2014
     12 C         142.6291  138.7908  166.0658 C.ar    1  UNL1        0.0843
     13 C         142.6514  139.1893  167.5117 C.ar    1  UNL1        0.2018
     14 O         143.3272  138.3100  168.5216 O.2     1  UNL1       -0.2864
     15 C         141.9978  140.4671  167.9477 C.ar    1  UNL1        0.0737
     16 C         142.0201  140.8656  169.3936 C.ar    1  UNL1        0.0085
     17 C         141.3665  142.1434  169.8295 C.ar    1  UNL1        0.0299
     18 C         140.6907  143.0227  168.8195 C.ar    1  UNL1        0.1432
     19 F         140.0371  144.3006  169.2555 F       1  UNL1       -0.2041
     20 C         140.6684  142.6242  167.3736 C.ar    1  UNL1        0.0672
     21 C         141.3219  141.3464  166.9377 C.ar    1  UNL1        0.1508
     22 O         141.2997  140.9479  165.4917 O.2     1  UNL1       -0.4486
     23 C         141.1358  138.5392  156.8215 C.3     1  UNL1        0.0992
     24 C         142.2662  134.3514  155.6240 C.ar    1  UNL1        0.1659
     25 C         141.0801  135.0178  154.9923 C.ar    1  UNL1        0.0390
     26 C         140.7033  136.4137  155.3914 C.ar    1  UNL1        0.0003
     27 C         141.5126  137.1433  156.4224 C.ar    1  UNL1       -0.0037
     28 C         142.6986  136.4769  157.0541 C.ar    1  UNL1        0.0299
     29 C         143.0754  135.0809  156.6549 C.ar    1  UNL1        0.1735
     30 F         144.2615  134.4145  157.2868 F       1  UNL1       -0.2010
     31 C         142.5666  131.8422  156.2273 C.3     1  UNL1        0.2526
     32 O         142.6430  132.9554  155.2249 O.3     1  UNL1       -0.4692
@<TRIPOS>BOND
     1    31    32    1
     2    32    24    1
     3    24    25   ar
     4    25    26   ar
     5    26    27   ar
     6    27    23    1
     7    23     1    1
     8     1     2    1
     9     2     3    1
    10     3     4    1
    11     4     7    1
    12     7     8   am
    13     8     9    2
    14     8    11    1
    15    11    12   ar
    16    12    13   ar
    17    13    14    2
    18    13    15   ar
    19    15    16   ar
    20    16    17   ar
    21    17    18   ar
    22    18    19    1
    23    18    20   ar
    24    20    21   ar
    25    21    22   ar
    26     4     5    1
    27     5     6    1
    28    27    28   ar
    29    28    29   ar
    30    29    30    1
    31    29    24   ar
    32     6     1    1
    33    22    11   ar
    34    21    15   ar
    35     7    10    1
@<TRIPOS>MOLECULE
*****
 32 35 0 0 0
SMALL
GASTEIGER

@<TRIPOS>ATOM
      1 N         141.5351  137.0083  156.9354 N.3     1  UNL1       -0.2689
      2 C         140.1802  137.5681  157.2531 C.3     1  UNL1        0.0741
      3 C         139.9924  138.4378  158.4608 C.3     1  UNL1        0.0369
      4 C         141.1594  138.7477  159.3507 C.3     1  UNL1        0.0747
      5 C         142.5143  138.1880  159.0330 C.3     1  UNL1        0.0369
      6 C         142.7022  137.3183  157.8254 C.3     1  UNL1        0.0741
      7 N         140.9715  139.6174  160.5582 N.am    1  UNL1       -0.2999
      8 C         140.8108  138.9947  161.9134 C.2     1  UNL1        0.2806
      9 O         140.8380  137.5022  162.0609 O.2     1  UNL1       -0.2668
     10 H         140.9537  140.5970  160.4614 H       1  UNL1        0.1498
     11 C         140.6229  139.8645  163.1210 C.ar    1  UNL1        0.2014
     12 C         139.3288  140.5949  163.3251 C.ar    1  UNL1        0.0843
     13 C         139.1408  141.4646  164.5327 C.ar    1  UNL1        0.2018
     14 O         137.8467  142.1950  164.7368 O.2     1  UNL1       -0.2864
     15 C         140.2471  141.6040  165.5361 C.ar    1  UNL1        0.0737
     16 C         140.0592  142.4738  166.7436 C.ar    1  UNL1        0.0085
     17 C         141.1654  142.6131  167.7470 C.ar    1  UNL1        0.0299
     18 C         142.4596  141.8828  167.5428 C.ar    1  UNL1        0.1432
     19 F         143.5659  142.0222  168.5463 F       1  UNL1       -0.2041
     20 C         142.6475  141.0130  166.3353 C.ar    1  UNL1        0.0672
     21 C         141.5413  140.8736  165.3319 C.ar    1  UNL1        0.1508
     22 O         141.7292  140.0038  164.1243 O.2     1  UNL1       -0.4486
     23 C         141.7230  136.1386  155.7279 C.3     1  UNL1        0.0992
     24 C         143.0711  131.8730  156.2149 C.ar    1  UNL1        0.1659
     25 C         141.7969  132.1781  155.4847 C.ar    1  UNL1        0.0390
     26 C         141.3475  133.6000  155.3224 C.ar    1  UNL1        0.0003
     27 C         142.1724  134.7167  155.8902 C.ar    1  UNL1       -0.0037
     28 C         143.4466  134.4116  156.6204 C.ar    1  UNL1        0.0299
     29 C         143.8959  132.9897  156.7827 C.ar    1  UNL1        0.1735
     30 F         145.1702  132.6846  157.5129 F       1  UNL1       -0.2010
     31 C         143.4626  129.7955  157.7251 C.3     1  UNL1        0.2526
     32 O         143.5205  130.4511  156.3772 O.3     1  UNL1       -0.4692
@<TRIPOS>BOND
     1    31    32    1
     2    32    24    1
     3    24    25   ar
     4    25    26   ar
     5    26    27   ar
     6    27    23    1
     7    23     1    1
     8     1     2    1
     9     2     3    1
    10     3     4    1
    11     4     7    1
    12     7     8   am
    13     8     9    2
    14     8    11    1
    15    11    12   ar
    16    12    13   ar
    17    13    14    2
    18    13    15   ar
    19    15    16   ar
    20    16    17   ar
    21    17    18   ar
    22    18    19    1
    23    18    20   ar
    24    20    21   ar
    25    21    22   ar
    26     4     5    1
    27     5     6    1
    28    27    28   ar
    29    28    29   ar
    30    29    30    1
    31    29    24   ar
    32     6     1    1
    33    22    11   ar
    34    21    15   ar
    35     7    10    1
@<TRIPOS>MOLECULE
*****
 32 35 0 0 0
SMALL
GASTEIGER

@<TRIPOS>ATOM
      1 N         142.0449  138.0292  158.7551 N.3     1  UNL1       -0.2689
      2 C         140.6899  138.5704  159.1028 C.3     1  UNL1        0.0741
      3 C         140.2821  138.7045  160.5401 C.3     1  UNL1        0.0369
      4 C         141.2293  138.2975  161.6296 C.3     1  UNL1        0.0747
      5 C         142.5844  137.7563  161.2818 C.3     1  UNL1        0.0369
      6 C         142.9922  137.6222  159.8446 C.3     1  UNL1        0.0741
      7 N         140.8215  138.4316  163.0668 N.am    1  UNL1       -0.2999
      8 C         140.7351  139.7894  163.6983 C.2     1  UNL1        0.2806
      9 O         141.0564  141.0131  162.8926 O.2     1  UNL1       -0.2668
     10 H         140.6106  137.6284  163.5957 H       1  UNL1        0.1498
     11 C         140.3272  139.9235  165.1356 C.ar    1  UNL1        0.2014
     12 C         139.1677  139.1315  165.6632 C.ar    1  UNL1        0.0843
     13 C         138.7599  139.2656  167.1004 C.ar    1  UNL1        0.2018
     14 O         137.6003  138.4736  167.6280 O.2     1  UNL1       -0.2864
     15 C         139.5116  140.1916  168.0102 C.ar    1  UNL1        0.0737
     16 C         139.1037  140.3256  169.4474 C.ar    1  UNL1        0.0085
     17 C         139.8554  141.2516  170.3570 C.ar    1  UNL1        0.0299
     18 C         141.0149  142.0436  169.8295 C.ar    1  UNL1        0.1432
     19 F         141.7666  142.9696  170.7392 F       1  UNL1       -0.2041
     20 C         141.4227  141.9095  168.3922 C.ar    1  UNL1        0.0672
     21 C         140.6711  140.9835  167.4826 C.ar    1  UNL1        0.1508
     22 O         141.0789  140.8495  166.0453 O.2     1  UNL1       -0.4486
     23 C         142.4528  137.8951  157.3178 C.3     1  UNL1        0.0992
     24 C         145.4309  140.7663  155.5467 C.ar    1  UNL1        0.1659
     25 C         145.1164  139.4811  154.8400 C.ar    1  UNL1        0.0390
     26 C         144.1237  138.5241  155.4304 C.ar    1  UNL1        0.0003
     27 C         143.4455  138.8522  156.7274 C.ar    1  UNL1       -0.0037
     28 C         143.7600  140.1373  157.4341 C.ar    1  UNL1        0.0299
     29 C         144.7527  141.0944  156.8437 C.ar    1  UNL1        0.1735
     30 F         145.0672  142.3796  157.5504 F       1  UNL1       -0.2010
     31 C         147.8796  141.5969  155.2938 C.3     1  UNL1        0.2526
     32 O         146.4236  141.7234  154.9563 O.3     1  UNL1       -0.4692
@<TRIPOS>BOND
     1    31    32    1
     2    32    24    1
     3    24    25   ar
     4    25    26   ar
     5    26    27   ar
     6    27    23    1
     7    23     1    1
     8     1     2    1
     9     2     3    1
    10     3     4    1
    11     4     7    1
    12     7     8   am
    13     8     9    2
    14     8    11    1
    15    11    12   ar
    16    12    13   ar
    17    13    14    2
    18    13    15   ar
    19    15    16   ar
    20    16    17   ar
    21    17    18   ar
    22    18    19    1
    23    18    20   ar
    24    20    21   ar
    25    21    22   ar
    26     4     5    1
    27     5     6    1
    28    27    28   ar
    29    28    29   ar
    30    29    30    1
    31    29    24   ar
    32     6     1    1
    33    22    11   ar
    34    21    15   ar
    35     7    10    1
@<TRIPOS>MOLECULE
*****
 32 35 0 0 0
SMALL
GASTEIGER

@<TRIPOS>ATOM
      1 N         142.8784  140.9902  162.4076 N.3     1  UNL1       -0.2689
      2 C         141.5843  140.5663  161.7786 C.3     1  UNL1        0.0741
      3 C         141.5544  139.3968  160.8396 C.3     1  UNL1        0.0369
      4 C         142.8186  138.6514  160.5296 C.3     1  UNL1        0.0747
      5 C         144.1127  139.0754  161.1586 C.3     1  UNL1        0.0369
      6 C         144.1426  140.2447  162.0976 C.3     1  UNL1        0.0741
      7 N         142.7888  137.4821  159.5907 N.am    1  UNL1       -0.2999
      8 C         142.5936  137.7057  158.1203 C.2     1  UNL1        0.2806
      9 O         142.4283  139.0986  157.5889 O.2     1  UNL1       -0.2668
     10 H         142.8972  136.5679  159.9395 H       1  UNL1        0.1498
     11 C         142.5637  136.5362  157.1814 C.ar    1  UNL1        0.2014
     12 C         141.6589  136.5578  155.9852 C.ar    1  UNL1        0.0843
     13 C         141.6290  135.3884  155.0462 C.ar    1  UNL1        0.2018
     14 O         140.7242  135.4100  153.8501 O.2     1  UNL1       -0.2864
     15 C         142.5039  134.1974  155.3035 C.ar    1  UNL1        0.0737
     16 C         142.4740  133.0281  154.3645 C.ar    1  UNL1        0.0085
     17 C         143.3489  131.8371  154.6217 C.ar    1  UNL1        0.0299
     18 C         144.2537  131.8156  155.8179 C.ar    1  UNL1        0.1432
     19 F         145.1286  130.6246  156.0751 F       1  UNL1       -0.2041
     20 C         144.2836  132.9849  156.7569 C.ar    1  UNL1        0.0672
     21 C         143.4087  134.1759  156.4996 C.ar    1  UNL1        0.1508
     22 O         143.4386  135.3453  157.4386 O.2     1  UNL1       -0.4486
     23 C         142.9083  142.1596  163.3466 C.3     1  UNL1        0.0992
     24 C         142.2456  141.5252  167.7521 C.ar    1  UNL1        0.1659
     25 C         143.3463  142.4291  167.2817 C.ar    1  UNL1        0.0390
     26 C         143.5672  142.6406  165.8132 C.ar    1  UNL1        0.0003
     27 C         142.6874  141.9481  164.8151 C.ar    1  UNL1       -0.0037
     28 C         141.5867  141.0442  165.2854 C.ar    1  UNL1        0.0299
     29 C         141.3658  140.8327  166.7539 C.ar    1  UNL1        0.1735
     30 F         140.2650  139.9288  167.2243 F       1  UNL1       -0.2010
     31 C         142.6001  140.1063  169.8993 C.3     1  UNL1        0.2526
     32 O         142.0247  141.3138  169.2206 O.3     1  UNL1       -0.4692
@<TRIPOS>BOND
     1    31    32    1
     2    32    24    1
     3    24    25   ar
     4    25    26   ar
     5    26    27   ar
     6    27    23    1
     7    23     1    1
     8     1     2    1
     9     2     3    1
    10     3     4    1
    11     4     7    1
    12     7     8   am
    13     8     9    2
    14     8    11    1
    15    11    12   ar
    16    12    13   ar
    17    13    14    2
    18    13    15   ar
    19    15    16   ar
    20    16    17   ar
    21    17    18   ar
    22    18    19    1
    23    18    20   ar
    24    20    21   ar
    25    21    22   ar
    26     4     5    1
    27     5     6    1
    28    27    28   ar
    29    28    29   ar
    30    29    30    1
    31    29    24   ar
    32     6     1    1
    33    22    11   ar
    34    21    15   ar
    35     7    10    1
