@<TRIPOS>MOLECULE
*****
 28 28 0 0 0
SMALL
GASTEIGER

@<TRIPOS>ATOM
      1 C         143.1530  140.3310  165.7453 C.ar    1  UNL1        0.0004
      2 C         143.3012  141.8236  165.7481 C.ar    1  UNL1       -0.0027
      3 C         143.2732  142.5776  167.0446 C.ar    1  UNL1       -0.0015
      4 C         143.0971  141.8390  168.3381 C.ar    1  UNL1        0.0143
      5 C         142.9489  140.3464  168.3353 C.ar    1  UNL1        0.1345
      6 C         142.9769  139.5924  167.0389 C.ar    1  UNL1        0.0340
      7 O         142.7727  139.6077  169.6289 O.3     1  UNL1       -0.4718
      8 C         141.3946  139.3117  170.1419 C.3     1  UNL1        0.2525
      9 C         143.1810  139.5770  164.4489 C.3     1  UNL1        0.1164
     10 C         141.0303  138.7615  163.2409 C.2     1  UNL1        0.2227
     11 O         140.9059  140.0938  162.5630 O.2     1  UNL1       -0.2751
     12 N         142.1678  138.5031  164.1838 N.am    1  UNL1       -0.3004
     13 H         142.2495  137.6287  164.6288 H       1  UNL1        0.1497
     14 C         140.0171  137.6876  162.9758 C.3     1  UNL1        0.0851
     15 C         138.7422  137.6480  163.7652 C.3     1  UNL1        0.0096
     16 C         138.7815  137.7667  165.2599 C.3     1  UNL1        0.0005
     17 C         138.3543  139.0428  165.9225 C.3     1  UNL1        0.0000
     18 C         139.1691  139.6144  167.0448 C.3     1  UNL1        0.0000
     19 C         139.6930  141.0169  166.9524 C.3     1  UNL1        0.0000
     20 C         139.8234  143.2491  165.6294 C.3     1  UNL1        0.0000
     21 C         139.6102  141.7645  165.6547 C.3     1  UNL1        0.0000
     22 C         143.0691  142.5931  169.6345 C.3     1  UNL1        0.0612
     23 C         141.7647  142.8308  170.3359 C.3     1  UNL1        0.1441
     24 O         141.5617  142.3253  171.7336 O.3     1  UNL1       -0.3816
     25 H         140.6711  142.5616  172.0367 H       1  UNL1        0.2105
     26 C         140.6633  143.5738  169.6397 C.3     1  UNL1        0.1666
     27 O         140.1063  144.8286  170.2442 O.3     1  UNL1       -0.3795
     28 H         139.6568  144.6146  171.0767 H       1  UNL1        0.2105
@<TRIPOS>BOND
     1    20    21    1
     2    21    19    1
     3    19    18    1
     4    18    17    1
     5    17    16    1
     6    16    15    1
     7    15    14    1
     8    14    10    1
     9    10    11    2
    10    10    12   am
    11    12     9    1
    12     9     1    1
    13     1     2   ar
    14     2     3   ar
    15     3     4   ar
    16     4    22    1
    17    22    23    1
    18    23    24    1
    19    23    26    1
    20    26    27    1
    21     4     5   ar
    22     5     7    1
    23     7     8    1
    24     5     6   ar
    25     6     1   ar
    26    12    13    1
    27    24    25    1
    28    27    28    1
@<TRIPOS>MOLECULE
*****
 28 28 0 0 0
SMALL
GASTEIGER

@<TRIPOS>ATOM
      1 C         139.3616  139.6065  166.6392 C.ar    1  UNL1        0.0004
      2 C         139.0895  139.9584  168.0717 C.ar    1  UNL1       -0.0027
      3 C         140.2308  140.2073  169.0127 C.ar    1  UNL1       -0.0015
      4 C         141.6442  140.1044  168.5212 C.ar    1  UNL1        0.0143
      5 C         141.9163  139.7526  167.0887 C.ar    1  UNL1        0.1345
      6 C         140.7750  139.5037  166.1477 C.ar    1  UNL1        0.0340
      7 O         143.3298  139.6497  166.5971 O.3     1  UNL1       -0.4718
      8 C         143.8008  138.3937  165.9258 C.3     1  UNL1        0.2525
      9 C         138.2203  139.3576  165.6982 C.3     1  UNL1        0.1164
     10 C         138.1718  140.7979  163.5364 C.2     1  UNL1        0.2227
     11 O         139.2822  139.9703  162.9601 O.2     1  UNL1       -0.2751
     12 N         137.6409  140.4915  164.9055 N.am    1  UNL1       -0.3004
     13 H         136.9121  141.0347  165.2837 H       1  UNL1        0.1497
     14 C         137.5924  141.9318  162.7437 C.3     1  UNL1        0.0851
     15 C         138.1360  143.3197  162.9124 C.3     1  UNL1        0.0096
     16 C         137.8167  144.1049  164.1499 C.3     1  UNL1        0.0005
     17 C         138.9020  144.4291  165.1332 C.3     1  UNL1        0.0000
     18 C         139.7155  143.3262  165.7431 C.3     1  UNL1        0.0000
     19 C         141.1653  143.1790  165.3875 C.3     1  UNL1        0.0000
     20 C         142.1679  143.0207  162.9959 C.3     1  UNL1        0.0000
     21 C         141.5662  142.3566  164.1988 C.3     1  UNL1        0.0000
     22 C         142.7855  140.3533  169.4622 C.3     1  UNL1        0.0612
     23 C         142.6237  141.3190  170.5985 C.3     1  UNL1        0.1441
     24 O         142.2163  140.8212  171.9536 O.3     1  UNL1       -0.3816
     25 H         142.1580  141.5690  172.5687 H       1  UNL1        0.2105
     26 C         142.8694  142.7825  170.3798 C.3     1  UNL1        0.1666
     27 O         141.7470  143.7641  170.5438 O.3     1  UNL1       -0.3795
     28 H         141.0780  143.6077  169.8591 H       1  UNL1        0.2105
@<TRIPOS>BOND
     1    20    21    1
     2    21    19    1
     3    19    18    1
     4    18    17    1
     5    17    16    1
     6    16    15    1
     7    15    14    1
     8    14    10    1
     9    10    11    2
    10    10    12   am
    11    12     9    1
    12     9     1    1
    13     1     2   ar
    14     2     3   ar
    15     3     4   ar
    16     4    22    1
    17    22    23    1
    18    23    24    1
    19    23    26    1
    20    26    27    1
    21     4     5   ar
    22     5     7    1
    23     7     8    1
    24     5     6   ar
    25     6     1   ar
    26    12    13    1
    27    24    25    1
    28    27    28    1
@<TRIPOS>MOLECULE
*****
 28 28 0 0 0
SMALL
GASTEIGER

@<TRIPOS>ATOM
      1 C         140.1191  141.8989  165.6686 C.ar    1  UNL1        0.0004
      2 C         141.0153  142.6636  166.5970 C.ar    1  UNL1       -0.0027
      3 C         141.1140  142.2670  168.0402 C.ar    1  UNL1       -0.0015
      4 C         140.3164  141.1056  168.5550 C.ar    1  UNL1        0.0143
      5 C         139.4202  140.3409  167.6266 C.ar    1  UNL1        0.1345
      6 C         139.3216  140.7375  166.1834 C.ar    1  UNL1        0.0340
      7 O         138.6226  139.1794  168.1415 O.3     1  UNL1       -0.4718
      8 C         137.6187  138.5065  167.2531 C.3     1  UNL1        0.2525
      9 C         140.0204  142.2955  164.2253 C.3     1  UNL1        0.1164
     10 C         138.8256  140.6581  162.6002 C.2     1  UNL1        0.2227
     11 O         137.4943  141.1147  163.1189 O.2     1  UNL1       -0.2751
     12 N         140.0886  141.2485  163.1534 N.am    1  UNL1       -0.3004
     13 H         140.9624  140.9488  162.8129 H       1  UNL1        0.1497
     14 C         138.8938  139.6110  161.5282 C.3     1  UNL1        0.0851
     15 C         138.6494  138.1710  161.8698 C.3     1  UNL1        0.0096
     16 C         138.9956  137.6547  163.2349 C.3     1  UNL1        0.0005
     17 C         140.4118  137.2809  163.5584 C.3     1  UNL1        0.0000
     18 C         141.1089  137.9200  164.7228 C.3     1  UNL1        0.0000
     19 C         142.3446  138.7404  164.4989 C.3     1  UNL1        0.0000
     20 C         142.9910  138.9534  167.0062 C.3     1  UNL1        0.0000
     21 C         142.9295  139.5383  165.6263 C.3     1  UNL1        0.0000
     22 C         140.4151  140.7090  169.9983 C.3     1  UNL1        0.0612
     23 C         141.7123  140.8712  170.7337 C.3     1  UNL1        0.1441
     24 O         141.8605  141.9514  171.7639 O.3     1  UNL1       -0.3816
     25 H         142.7535  141.9182  172.1410 H       1  UNL1        0.2105
     26 C         142.8614  139.9532  170.4389 C.3     1  UNL1        0.1666
     27 O         143.8533  139.6238  171.5150 O.3     1  UNL1       -0.3795
     28 H         144.3435  140.4244  171.7590 H       1  UNL1        0.2105
@<TRIPOS>BOND
     1    20    21    1
     2    21    19    1
     3    19    18    1
     4    18    17    1
     5    17    16    1
     6    16    15    1
     7    15    14    1
     8    14    10    1
     9    10    11    2
    10    10    12   am
    11    12     9    1
    12     9     1    1
    13     1     2   ar
    14     2     3   ar
    15     3     4   ar
    16     4    22    1
    17    22    23    1
    18    23    24    1
    19    23    26    1
    20    26    27    1
    21     4     5   ar
    22     5     7    1
    23     7     8    1
    24     5     6   ar
    25     6     1   ar
    26    12    13    1
    27    24    25    1
    28    27    28    1
@<TRIPOS>MOLECULE
*****
 28 28 0 0 0
SMALL
GASTEIGER

@<TRIPOS>ATOM
      1 C         139.8480  141.7317  165.6332 C.ar    1  UNL1        0.0004
      2 C         139.3313  140.3826  166.0368 C.ar    1  UNL1       -0.0027
      3 C         139.4602  139.9249  167.4594 C.ar    1  UNL1       -0.0015
      4 C         140.1059  140.8162  168.4785 C.ar    1  UNL1        0.0143
      5 C         140.6225  142.1653  168.0749 C.ar    1  UNL1        0.1345
      6 C         140.4936  142.6231  166.6523 C.ar    1  UNL1        0.0340
      7 O         141.2682  143.0568  169.0940 O.3     1  UNL1       -0.4718
      8 C         140.4322  144.0154  169.8891 C.3     1  UNL1        0.2525
      9 C         139.7191  142.1894  164.2106 C.3     1  UNL1        0.1164
     10 C         141.2439  144.1042  163.3398 C.2     1  UNL1        0.2227
     11 O         140.3397  145.1154  163.9799 O.2     1  UNL1       -0.2751
     12 N         140.9336  142.6412  163.4551 N.am    1  UNL1       -0.3004
     13 H         141.5271  141.9775  163.0350 H       1  UNL1        0.1497
     14 C         142.4585  144.5560  162.5842 C.3     1  UNL1        0.0851
     15 C         143.8240  144.3605  163.1735 C.3     1  UNL1        0.0096
     16 C         144.0102  144.3919  164.6615 C.3     1  UNL1        0.0005
     17 C         144.1705  143.1105  165.4245 C.3     1  UNL1        0.0000
     18 C         144.4005  141.8235  164.6891 C.3     1  UNL1        0.0000
     19 C         143.3757  140.7300  164.7525 C.3     1  UNL1        0.0000
     20 C         142.5910  138.5270  165.8843 C.3     1  UNL1        0.0000
     21 C         143.6979  139.4393  165.4455 C.3     1  UNL1        0.0000
     22 C         140.2348  140.3585  169.9011 C.3     1  UNL1        0.0612
     23 C         141.5818  139.9983  170.4539 C.3     1  UNL1        0.1441
     24 O         142.0705  140.6421  171.7176 O.3     1  UNL1       -0.3816
     25 H         142.9522  140.3007  171.9344 H       1  UNL1        0.2105
     26 C         142.4402  138.9944  169.7431 C.3     1  UNL1        0.1666
     27 O         143.1914  137.9602  170.5283 O.3     1  UNL1       -0.3795
     28 H         143.8666  138.3948  171.0725 H       1  UNL1        0.2105
@<TRIPOS>BOND
     1    20    21    1
     2    21    19    1
     3    19    18    1
     4    18    17    1
     5    17    16    1
     6    16    15    1
     7    15    14    1
     8    14    10    1
     9    10    11    2
    10    10    12   am
    11    12     9    1
    12     9     1    1
    13     1     2   ar
    14     2     3   ar
    15     3     4   ar
    16     4    22    1
    17    22    23    1
    18    23    24    1
    19    23    26    1
    20    26    27    1
    21     4     5   ar
    22     5     7    1
    23     7     8    1
    24     5     6   ar
    25     6     1   ar
    26    12    13    1
    27    24    25    1
    28    27    28    1
@<TRIPOS>MOLECULE
*****
 28 28 0 0 0
SMALL
GASTEIGER

@<TRIPOS>ATOM
      1 C         140.7981  140.3800  165.6212 C.ar    1  UNL1        0.0004
      2 C         140.7669  141.8704  165.7879 C.ar    1  UNL1       -0.0027
      3 C         141.5151  142.5145  166.9173 C.ar    1  UNL1       -0.0015
      4 C         142.2944  141.6683  167.8798 C.ar    1  UNL1        0.0143
      5 C         142.3255  140.1779  167.7130 C.ar    1  UNL1        0.1345
      6 C         141.5774  139.5338  166.5837 C.ar    1  UNL1        0.0340
      7 O         143.1049  139.3316  168.6756 O.3     1  UNL1       -0.4718
      8 C         142.4803  138.8976  169.9685 C.3     1  UNL1        0.2525
      9 C         140.0500  139.7359  164.4918 C.3     1  UNL1        0.1164
     10 C         141.3232  138.0730  162.9545 C.2     1  UNL1        0.2227
     11 O         141.1919  137.0057  164.0002 O.2     1  UNL1       -0.2751
     12 N         140.7522  139.4381  163.2003 N.am    1  UNL1       -0.3004
     13 H         140.8384  140.1386  162.5139 H       1  UNL1        0.1497
     14 C         142.0255  137.7752  161.6629 C.3     1  UNL1        0.0851
     15 C         143.5130  137.9402  161.5627 C.3     1  UNL1        0.0096
     16 C         144.0952  139.2600  161.1517 C.3     1  UNL1        0.0005
     17 C         144.3906  140.3044  162.1871 C.3     1  UNL1        0.0000
     18 C         144.3517  139.9486  163.6438 C.3     1  UNL1        0.0000
     19 C         144.5104  141.0195  164.6819 C.3     1  UNL1        0.0000
     20 C         144.5590  143.5436  165.2955 C.3     1  UNL1        0.0000
     21 C         144.1865  142.4448  164.3449 C.3     1  UNL1        0.0000
     22 C         143.0425  142.3124  169.0092 C.3     1  UNL1        0.0612
     23 C         142.2939  142.8694  170.1835 C.3     1  UNL1        0.1441
     24 O         142.8548  144.0320  170.9477 O.3     1  UNL1       -0.3816
     25 H         142.2513  144.2656  171.6702 H       1  UNL1        0.2105
     26 C         140.9843  142.2639  170.5939 C.3     1  UNL1        0.1666
     27 O         140.6402  142.1360  172.0483 O.3     1  UNL1       -0.3795
     28 H         141.2482  141.5093  172.4706 H       1  UNL1        0.2105
@<TRIPOS>BOND
     1    20    21    1
     2    21    19    1
     3    19    18    1
     4    18    17    1
     5    17    16    1
     6    16    15    1
     7    15    14    1
     8    14    10    1
     9    10    11    2
    10    10    12   am
    11    12     9    1
    12     9     1    1
    13     1     2   ar
    14     2     3   ar
    15     3     4   ar
    16     4    22    1
    17    22    23    1
    18    23    24    1
    19    23    26    1
    20    26    27    1
    21     4     5   ar
    22     5     7    1
    23     7     8    1
    24     5     6   ar
    25     6     1   ar
    26    12    13    1
    27    24    25    1
    28    27    28    1
@<TRIPOS>MOLECULE
*****
 28 28 0 0 0
SMALL
GASTEIGER

@<TRIPOS>ATOM
      1 C         141.0183  139.6956  166.2481 C.ar    1  UNL1        0.0004
      2 C         139.6495  139.6759  166.8612 C.ar    1  UNL1       -0.0027
      3 C         139.4788  139.9596  168.3242 C.ar    1  UNL1       -0.0015
      4 C         140.6769  140.2631  169.1741 C.ar    1  UNL1        0.0143
      5 C         142.0457  140.2828  168.5610 C.ar    1  UNL1        0.1345
      6 C         142.2164  139.9991  167.0980 C.ar    1  UNL1        0.0340
      7 O         143.2439  140.5864  169.4109 O.3     1  UNL1       -0.4718
      8 C         143.7772  141.9865  169.4828 C.3     1  UNL1        0.2525
      9 C         141.1890  139.4119  164.7851 C.3     1  UNL1        0.1164
     10 C         139.4285  140.4198  163.1620 C.2     1  UNL1        0.2227
     11 O         138.4472  139.3607  163.5685 O.2     1  UNL1       -0.2751
     12 N         140.7994  140.4454  163.7703 N.am    1  UNL1       -0.3004
     13 H         141.4434  141.1406  163.5034 H       1  UNL1        0.1497
     14 C         139.0389  141.4534  162.1470 C.3     1  UNL1        0.0851
     15 C         137.7895  142.2607  162.3403 C.3     1  UNL1        0.0096
     16 C         137.4894  142.8695  163.6779 C.3     1  UNL1        0.0005
     17 C         137.9621  144.2578  163.9932 C.3     1  UNL1        0.0000
     18 C         138.8021  144.5056  165.2110 C.3     1  UNL1        0.0000
     19 C         139.9365  143.5811  165.5405 C.3     1  UNL1        0.0000
     20 C         141.5191  144.8679  163.9314 C.3     1  UNL1        0.0000
     21 C         141.2151  143.6549  164.7598 C.3     1  UNL1        0.0000
     22 C         140.5062  140.5468  170.6371 C.3     1  UNL1        0.0612
     23 C         140.6691  141.9455  171.1538 C.3     1  UNL1        0.1441
     24 O         141.7622  142.2614  172.1314 O.3     1  UNL1       -0.3816
     25 H         141.7277  143.2030  172.3618 H       1  UNL1        0.2105
     26 C         139.7390  143.0284  170.6930 C.3     1  UNL1        0.1666
     27 O         138.7240  143.5980  171.6392 O.3     1  UNL1       -0.3795
     28 H         138.0757  142.9138  171.8683 H       1  UNL1        0.2105
@<TRIPOS>BOND
     1    20    21    1
     2    21    19    1
     3    19    18    1
     4    18    17    1
     5    17    16    1
     6    16    15    1
     7    15    14    1
     8    14    10    1
     9    10    11    2
    10    10    12   am
    11    12     9    1
    12     9     1    1
    13     1     2   ar
    14     2     3   ar
    15     3     4   ar
    16     4    22    1
    17    22    23    1
    18    23    24    1
    19    23    26    1
    20    26    27    1
    21     4     5   ar
    22     5     7    1
    23     7     8    1
    24     5     6   ar
    25     6     1   ar
    26    12    13    1
    27    24    25    1
    28    27    28    1
@<TRIPOS>MOLECULE
*****
 28 28 0 0 0
SMALL
GASTEIGER

@<TRIPOS>ATOM
      1 C         140.4148  139.4451  166.1842 C.ar    1  UNL1        0.0004
      2 C         141.9025  139.2645  166.2463 C.ar    1  UNL1       -0.0027
      3 C         142.6317  139.4863  167.5382 C.ar    1  UNL1       -0.0015
      4 C         141.8732  139.8889  168.7681 C.ar    1  UNL1        0.0143
      5 C         140.3854  140.0695  168.7060 C.ar    1  UNL1        0.1345
      6 C         139.6562  139.8476  167.4141 C.ar    1  UNL1        0.0340
      7 O         139.6268  140.4720  169.9359 O.3     1  UNL1       -0.4718
      8 C         139.3532  141.9216  170.2074 C.3     1  UNL1        0.2525
      9 C         139.6856  139.2232  164.8923 C.3     1  UNL1        0.1164
     10 C         138.1322  140.1069  163.0066 C.2     1  UNL1        0.2227
     11 O         138.1219  138.7455  162.3771 O.2     1  UNL1       -0.2751
     12 N         138.9141  140.3458  164.2642 N.am    1  UNL1       -0.3004
     13 H         138.9209  141.2394  164.6773 H       1  UNL1        0.1497
     14 C         137.3608  141.2296  162.3784 C.3     1  UNL1        0.0851
     15 C         138.0792  142.2843  161.5900 C.3     1  UNL1        0.0096
     16 C         138.8114  143.3836  162.3009 C.3     1  UNL1        0.0005
     17 C         138.0499  144.3890  163.1129 C.3     1  UNL1        0.0000
     18 C         137.8904  144.1929  164.5915 C.3     1  UNL1        0.0000
     19 C         139.0487  144.4445  165.5108 C.3     1  UNL1        0.0000
     20 C         141.1966  143.0210  165.1797 C.3     1  UNL1        0.0000
     21 C         139.9317  143.3080  165.9331 C.3     1  UNL1        0.0000
     22 C         142.6024  140.1107  170.0600 C.3     1  UNL1        0.0612
     23 C         142.9060  141.5058  170.5198 C.3     1  UNL1        0.1441
     24 O         142.3310  142.0123  171.8094 O.3     1  UNL1       -0.3816
     25 H         142.6232  142.9254  171.9572 H       1  UNL1        0.2105
     26 C         143.7846  142.3945  169.6901 C.3     1  UNL1        0.1666
     27 O         145.0467  142.9574  170.2736 O.3     1  UNL1       -0.3795
     28 H         144.8253  143.5718  170.9908 H       1  UNL1        0.2105
@<TRIPOS>BOND
     1    20    21    1
     2    21    19    1
     3    19    18    1
     4    18    17    1
     5    17    16    1
     6    16    15    1
     7    15    14    1
     8    14    10    1
     9    10    11    2
    10    10    12   am
    11    12     9    1
    12     9     1    1
    13     1     2   ar
    14     2     3   ar
    15     3     4   ar
    16     4    22    1
    17    22    23    1
    18    23    24    1
    19    23    26    1
    20    26    27    1
    21     4     5   ar
    22     5     7    1
    23     7     8    1
    24     5     6   ar
    25     6     1   ar
    26    12    13    1
    27    24    25    1
    28    27    28    1
@<TRIPOS>MOLECULE
*****
 28 28 0 0 0
SMALL
GASTEIGER

@<TRIPOS>ATOM
      1 C         140.5813  142.2721  164.7064 C.ar    1  UNL1        0.0004
      2 C         140.2120  143.0789  165.9158 C.ar    1  UNL1       -0.0027
      3 C         140.9344  142.8608  167.2121 C.ar    1  UNL1       -0.0015
      4 C         142.0261  141.8359  167.2992 C.ar    1  UNL1        0.0143
      5 C         142.3955  141.0291  166.0898 C.ar    1  UNL1        0.1345
      6 C         141.6731  141.2472  164.7934 C.ar    1  UNL1        0.0340
      7 O         143.4873  140.0041  166.1768 O.3     1  UNL1       -0.4718
      8 C         143.3288  138.6795  165.4911 C.3     1  UNL1        0.2525
      9 C         139.8590  142.4902  163.4100 C.3     1  UNL1        0.1164
     10 C         138.2729  140.4934  162.9126 C.2     1  UNL1        0.2227
     11 O         137.4531  140.8441  164.1188 O.2     1  UNL1       -0.2751
     12 N         139.4758  141.3165  162.5583 N.am    1  UNL1       -0.3004
     13 H         140.0139  141.0863  161.7666 H       1  UNL1        0.1497
     14 C         137.8898  139.3197  162.0608 C.3     1  UNL1        0.0851
     15 C         138.4052  137.9510  162.3942 C.3     1  UNL1        0.0096
     16 C         139.7507  137.7926  163.0380 C.3     1  UNL1        0.0005
     17 C         139.8532  137.5841  164.5199 C.3     1  UNL1        0.0000
     18 C         138.6105  137.3940  165.3383 C.3     1  UNL1        0.0000
     19 C         138.1422  138.4848  166.2552 C.3     1  UNL1        0.0000
     20 C         139.0253  139.8445  168.2853 C.3     1  UNL1        0.0000
     21 C         139.1315  139.4470  166.8429 C.3     1  UNL1        0.0000
     22 C         142.7485  141.6178  168.5955 C.3     1  UNL1        0.0612
     23 C         142.4220  140.4252  169.4447 C.3     1  UNL1        0.1441
     24 O         142.8496  139.0549  169.0094 O.3     1  UNL1       -0.3816
     25 H         142.5614  138.4023  169.6665 H       1  UNL1        0.2105
     26 C         141.6679  140.6029  170.7291 C.3     1  UNL1        0.1666
     27 O         142.4113  140.6939  172.0288 O.3     1  UNL1       -0.3795
     28 H         142.8470  139.8469  172.2122 H       1  UNL1        0.2105
@<TRIPOS>BOND
     1    20    21    1
     2    21    19    1
     3    19    18    1
     4    18    17    1
     5    17    16    1
     6    16    15    1
     7    15    14    1
     8    14    10    1
     9    10    11    2
    10    10    12   am
    11    12     9    1
    12     9     1    1
    13     1     2   ar
    14     2     3   ar
    15     3     4   ar
    16     4    22    1
    17    22    23    1
    18    23    24    1
    19    23    26    1
    20    26    27    1
    21     4     5   ar
    22     5     7    1
    23     7     8    1
    24     5     6   ar
    25     6     1   ar
    26    12    13    1
    27    24    25    1
    28    27    28    1
@<TRIPOS>MOLECULE
*****
 28 28 0 0 0
SMALL
GASTEIGER

@<TRIPOS>ATOM
      1 C         139.1316  138.3827  165.0028 C.ar    1  UNL1        0.0004
      2 C         138.1283  138.3760  166.1179 C.ar    1  UNL1       -0.0027
      3 C         138.3948  139.1558  167.3713 C.ar    1  UNL1       -0.0015
      4 C         139.6645  139.9423  167.5095 C.ar    1  UNL1        0.0143
      5 C         140.6677  139.9491  166.3945 C.ar    1  UNL1        0.1345
      6 C         140.4013  139.1693  165.1411 C.ar    1  UNL1        0.0340
      7 O         141.9375  140.7356  166.5327 O.3     1  UNL1       -0.4718
      8 C         142.0895  142.0460  165.8188 C.3     1  UNL1        0.2525
      9 C         138.8651  137.6029  163.7495 C.3     1  UNL1        0.1164
     10 C         139.2239  138.5763  161.3675 C.2     1  UNL1        0.2227
     11 O         140.6645  138.1610  161.4148 O.2     1  UNL1       -0.2751
     12 N         138.3242  138.2973  162.5349 N.am    1  UNL1       -0.3004
     13 H         137.3787  138.5699  162.5038 H       1  UNL1        0.1497
     14 C         138.6830  139.2707  160.1529 C.3     1  UNL1        0.0851
     15 C         138.1891  140.6834  160.2543 C.3     1  UNL1        0.0096
     16 C         138.7298  141.5925  161.3178 C.3     1  UNL1        0.0005
     17 C         137.8019  142.2017  162.3266 C.3     1  UNL1        0.0000
     18 C         137.7393  141.6472  163.7190 C.3     1  UNL1        0.0000
     19 C         138.2732  142.4477  164.8698 C.3     1  UNL1        0.0000
     20 C         139.5229  144.7123  164.6256 C.3     1  UNL1        0.0000
     21 C         138.2474  143.9465  164.8168 C.3     1  UNL1        0.0000
     22 C         139.9310  140.7221  168.7629 C.3     1  UNL1        0.0612
     23 C         140.5535  140.0464  169.9485 C.3     1  UNL1        0.1441
     24 O         139.6856  139.5191  171.0526 O.3     1  UNL1       -0.3816
     25 H         140.2423  139.1153  171.7367 H       1  UNL1        0.2105
     26 C         142.0439  139.8979  170.0302 C.3     1  UNL1        0.1666
     27 O         142.7906  139.2092  168.9265 O.3     1  UNL1       -0.3795
     28 H         142.5356  138.2738  168.8982 H       1  UNL1        0.2105
@<TRIPOS>BOND
     1    20    21    1
     2    21    19    1
     3    19    18    1
     4    18    17    1
     5    17    16    1
     6    16    15    1
     7    15    14    1
     8    14    10    1
     9    10    11    2
    10    10    12   am
    11    12     9    1
    12     9     1    1
    13     1     2   ar
    14     2     3   ar
    15     3     4   ar
    16     4    22    1
    17    22    23    1
    18    23    24    1
    19    23    26    1
    20    26    27    1
    21     4     5   ar
    22     5     7    1
    23     7     8    1
    24     5     6   ar
    25     6     1   ar
    26    12    13    1
    27    24    25    1
    28    27    28    1
