@<TRIPOS>MOLECULE
*****
 25 29 0 0 0
SMALL
GASTEIGER

@<TRIPOS>ATOM
      1 O         143.9875  141.7882  165.3922 O.3     1  UNL1       -0.4519
      2 C         142.7219  141.2271  165.9698 C.3     1  UNL1        0.1715
      3 C         141.9085  140.2445  165.1807 C.3     1  UNL1        0.0596
      4 C         140.6430  139.6834  165.7583 C.3     1  UNL1        0.0619
      5 C         139.8295  138.7007  164.9692 C.3     1  UNL1        0.0235
      6 C         138.5640  138.1397  165.5469 C.3     1  UNL1        0.0617
      7 C         139.7811  139.5227  166.5650 C.3     1  UNL1        0.0235
      8 C         141.0044  141.0875  167.9142 C.3     1  UNL1        0.0619
      9 C         142.2699  141.6486  167.3366 C.3     1  UNL1        0.0596
     10 N         140.1910  140.1049  167.1251 N.3     1  UNL1       -0.2689
     11 C         138.9254  139.5438  167.7027 C.3     1  UNL1        0.1375
     12 C         138.1120  138.5612  166.9136 C.2     1  UNL1        0.1664
     13 O         136.8464  138.0001  167.4912 O.2     1  UNL1       -0.2946
     14 O         144.9768  144.0816  166.1072 O.2     1  UNL1       -0.2497
     15 C         144.1242  143.2668  165.1804 C.2     1  UNL1        0.3222
     16 C         143.4082  143.9307  164.0416 C.3     1  UNL1        0.1418
     17 C         144.0392  144.4355  162.7779 C.3     1  UNL1        0.1027
     18 N         142.9565  145.0232  161.9219 N.pl3   1  UNL1       -0.3322
     19 C         141.6565  144.8815  162.6567 C.ar    1  UNL1        0.0412
     20 C         140.2545  145.2801  162.3022 C.ar    1  UNL1        0.0140
     21 C         139.1318  145.0035  163.2576 C.ar    1  UNL1        0.0012
     22 C         139.4110  144.3283  164.5677 C.ar    1  UNL1       -0.0002
     23 C         140.8129  143.9298  164.9222 C.ar    1  UNL1       -0.0025
     24 C         141.9356  144.2064  163.9667 C.ar    1  UNL1        0.0028
     25 H         143.0779  145.4303  161.0338 H       1  UNL1        0.1468
@<TRIPOS>BOND
     1    14    15    2
     2    15     1    1
     3     2     1    1
     4     2     3    1
     5     4     3    1
     6     4     5    1
     7     6     5    1
     8     6     7    1
     9     7     8    1
    10     8     9    1
    11     8    10    1
    12    10    11    1
    13    11    12    1
    14    12    13    2
    15    15    16    1
    16    16    17    1
    17    17    18    1
    18    18    19    1
    19    19    20   ar
    20    20    21   ar
    21    21    22   ar
    22    22    23   ar
    23    23    24   ar
    24     9     2    1
    25    24    16    1
    26    10     4    1
    27    24    19   ar
    28    12     6    1
    29    18    25    1
@<TRIPOS>MOLECULE
*****
 25 29 0 0 0
SMALL
GASTEIGER

@<TRIPOS>ATOM
      1 O         140.6970  138.7224  164.5229 O.3     1  UNL1       -0.4519
      2 C         140.4554  139.2577  165.9032 C.3     1  UNL1        0.1715
      3 C         141.5737  139.9089  166.6615 C.3     1  UNL1        0.0596
      4 C         141.3321  140.4442  168.0417 C.3     1  UNL1        0.0619
      5 C         142.4505  141.0955  168.8001 C.3     1  UNL1        0.0235
      6 C         142.2089  141.6307  170.1803 C.3     1  UNL1        0.0617
      7 C         140.7139  140.6993  169.0277 C.3     1  UNL1        0.0235
      8 C         138.8537  139.6769  167.9054 C.3     1  UNL1        0.0619
      9 C         139.0953  139.1416  166.5252 C.3     1  UNL1        0.0596
     10 N         139.9721  140.3281  168.6637 N.3     1  UNL1       -0.2689
     11 C         139.7304  140.8634  170.0440 C.3     1  UNL1        0.1375
     12 C         140.8488  141.5147  170.8023 C.2     1  UNL1        0.1664
     13 O         140.6072  142.0500  172.1826 O.2     1  UNL1       -0.2946
     14 O         141.0679  139.3868  162.0388 O.2     1  UNL1       -0.2497
     15 C         140.3095  139.5367  163.3243 C.2     1  UNL1        0.3222
     16 C         139.1637  140.5009  163.4111 C.3     1  UNL1        0.1418
     17 C         137.7512  140.2323  162.9837 C.3     1  UNL1        0.1027
     18 N         136.9437  141.4683  163.2490 N.pl3   1  UNL1       -0.3322
     19 C         137.8573  142.5008  163.8403 C.ar    1  UNL1        0.0412
     20 C         137.6171  143.9081  164.3004 C.ar    1  UNL1        0.0140
     21 C         138.7488  144.7174  164.8606 C.ar    1  UNL1        0.0012
     22 C         140.1209  144.1195  164.9608 C.ar    1  UNL1       -0.0002
     23 C         140.3611  142.7122  164.5007 C.ar    1  UNL1       -0.0025
     24 C         139.2293  141.9028  163.9404 C.ar    1  UNL1        0.0028
     25 H         135.9828  141.5820  163.0670 H       1  UNL1        0.1468
@<TRIPOS>BOND
     1    14    15    2
     2    15     1    1
     3     2     1    1
     4     2     3    1
     5     4     3    1
     6     4     5    1
     7     6     5    1
     8     6     7    1
     9     7     8    1
    10     8     9    1
    11     8    10    1
    12    10    11    1
    13    11    12    1
    14    12    13    2
    15    15    16    1
    16    16    17    1
    17    17    18    1
    18    18    19    1
    19    19    20   ar
    20    20    21   ar
    21    21    22   ar
    22    22    23   ar
    23    23    24   ar
    24     9     2    1
    25    24    16    1
    26    10     4    1
    27    24    19   ar
    28    12     6    1
    29    18    25    1
@<TRIPOS>MOLECULE
*****
 25 29 0 0 0
SMALL
GASTEIGER

@<TRIPOS>ATOM
      1 O         142.2637  141.1216  167.6198 O.3     1  UNL1       -0.4519
      2 C         141.9175  142.0569  166.4993 C.3     1  UNL1        0.1715
      3 C         140.4809  142.3593  166.1916 C.3     1  UNL1        0.0596
      4 C         140.1348  143.2946  165.0711 C.3     1  UNL1        0.0619
      5 C         138.6981  143.5971  164.7634 C.3     1  UNL1        0.0235
      6 C         138.3520  144.5323  163.6430 C.3     1  UNL1        0.0617
      7 C         140.3314  144.0380  164.1611 C.3     1  UNL1        0.0235
      8 C         142.6618  143.6250  164.5661 C.3     1  UNL1        0.0619
      9 C         143.0079  142.6897  165.6865 C.3     1  UNL1        0.0596
     10 N         141.2252  143.9274  164.2584 N.3     1  UNL1       -0.2689
     11 C         140.8790  144.8627  163.1379 C.3     1  UNL1        0.1375
     12 C         139.4424  145.1651  162.8302 C.2     1  UNL1        0.1664
     13 O         139.0962  146.1004  161.7097 O.2     1  UNL1       -0.2946
     14 O         143.0663  138.7880  168.4323 O.2     1  UNL1       -0.2497
     15 C         142.6322  139.6984  167.3220 C.2     1  UNL1        0.3222
     16 C         142.5664  139.1855  165.9139 C.3     1  UNL1        0.1418
     17 C         143.7236  139.0543  164.9685 C.3     1  UNL1        0.1027
     18 N         143.2044  138.5015  163.6743 N.pl3   1  UNL1       -0.3322
     19 C         141.7263  138.2911  163.8199 C.ar    1  UNL1        0.0412
     20 C         140.6885  137.7692  162.8710 C.ar    1  UNL1        0.0140
     21 C         139.2565  137.6700  163.3061 C.ar    1  UNL1        0.0012
     22 C         138.8622  138.0928  164.6903 C.ar    1  UNL1       -0.0002
     23 C         139.9000  138.6147  165.6392 C.ar    1  UNL1       -0.0025
     24 C         141.3321  138.7138  165.2040 C.ar    1  UNL1        0.0028
     25 H         143.7397  138.3103  162.8705 H       1  UNL1        0.1468
@<TRIPOS>BOND
     1    14    15    2
     2    15     1    1
     3     2     1    1
     4     2     3    1
     5     4     3    1
     6     4     5    1
     7     6     5    1
     8     6     7    1
     9     7     8    1
    10     8     9    1
    11     8    10    1
    12    10    11    1
    13    11    12    1
    14    12    13    2
    15    15    16    1
    16    16    17    1
    17    17    18    1
    18    18    19    1
    19    19    20   ar
    20    20    21   ar
    21    21    22   ar
    22    22    23   ar
    23    23    24   ar
    24     9     2    1
    25    24    16    1
    26    10     4    1
    27    24    19   ar
    28    12     6    1
    29    18    25    1
@<TRIPOS>MOLECULE
*****
 25 29 0 0 0
SMALL
GASTEIGER

@<TRIPOS>ATOM
      1 O         138.9808  137.3639  165.2579 O.3     1  UNL1       -0.4519
      2 C         139.5932  137.6478  163.9184 C.3     1  UNL1        0.1715
      3 C         141.0846  137.7221  163.7760 C.3     1  UNL1        0.0596
      4 C         141.6969  138.0061  162.4365 C.3     1  UNL1        0.0619
      5 C         143.1883  138.0804  162.2941 C.3     1  UNL1        0.0235
      6 C         143.8006  138.3643  160.9546 C.3     1  UNL1        0.0617
      7 C         141.7230  138.2380  161.2682 C.3     1  UNL1        0.0235
      8 C         139.3265  138.1414  161.3816 C.3     1  UNL1        0.0619
      9 C         138.7142  137.8575  162.7211 C.3     1  UNL1        0.0596
     10 N         140.8178  138.2157  161.2393 N.3     1  UNL1       -0.2689
     11 C         141.4302  138.4997  159.8997 C.3     1  UNL1        0.1375
     12 C         142.9216  138.5740  159.7574 C.2     1  UNL1        0.1664
     13 O         143.5340  138.8579  158.4178 O.2     1  UNL1       -0.2946
     14 O         137.2076  138.3493  166.8810 O.2     1  UNL1       -0.2497
     15 C         138.4870  138.4941  166.1116 C.2     1  UNL1        0.3222
     16 C         139.2727  139.7691  166.1959 C.3     1  UNL1        0.1418
     17 C         140.4994  139.9953  167.0289 C.3     1  UNL1        0.1027
     18 N         140.9545  141.4079  166.8098 N.pl3   1  UNL1       -0.3322
     19 C         140.0089  142.0545  165.8413 C.ar    1  UNL1        0.0412
     20 C         139.9600  143.4347  165.2559 C.ar    1  UNL1        0.0140
     21 C         138.8718  143.8020  164.2912 C.ar    1  UNL1        0.0012
     22 C         137.8324  142.7892  163.9118 C.ar    1  UNL1       -0.0002
     23 C         137.8813  141.4091  164.4972 C.ar    1  UNL1       -0.0025
     24 C         138.9695  141.0417  165.4619 C.ar    1  UNL1        0.0028
     25 H         141.7364  141.8354  167.2281 H       1  UNL1        0.1468
@<TRIPOS>BOND
     1    14    15    2
     2    15     1    1
     3     2     1    1
     4     2     3    1
     5     4     3    1
     6     4     5    1
     7     6     5    1
     8     6     7    1
     9     7     8    1
    10     8     9    1
    11     8    10    1
    12    10    11    1
    13    11    12    1
    14    12    13    2
    15    15    16    1
    16    16    17    1
    17    17    18    1
    18    18    19    1
    19    19    20   ar
    20    20    21   ar
    21    21    22   ar
    22    22    23   ar
    23    23    24   ar
    24     9     2    1
    25    24    16    1
    26    10     4    1
    27    24    19   ar
    28    12     6    1
    29    18    25    1
@<TRIPOS>MOLECULE
*****
 25 29 0 0 0
SMALL
GASTEIGER

@<TRIPOS>ATOM
      1 O         138.9196  137.3501  165.1507 O.3     1  UNL1       -0.4519
      2 C         139.5551  137.6269  163.8204 C.3     1  UNL1        0.1715
      3 C         141.0487  137.6984  163.7032 C.3     1  UNL1        0.0596
      4 C         141.6842  137.9752  162.3729 C.3     1  UNL1        0.0619
      5 C         143.1779  138.0467  162.2556 C.3     1  UNL1        0.0235
      6 C         143.8134  138.3235  160.9254 C.3     1  UNL1        0.0617
      7 C         141.7305  138.2016  161.2042 C.3     1  UNL1        0.0235
      8 C         139.3323  138.1090  161.2772 C.3     1  UNL1        0.0619
      9 C         138.6969  137.8322  162.6074 C.3     1  UNL1        0.0596
     10 N         140.8260  138.1805  161.1600 N.3     1  UNL1       -0.2689
     11 C         141.4615  138.4573  159.8297 C.3     1  UNL1        0.1375
     12 C         142.9551  138.5288  159.7124 C.2     1  UNL1        0.1664
     13 O         143.5907  138.8056  158.3821 O.2     1  UNL1       -0.2946
     14 O         137.2711  138.2227  166.9593 O.2     1  UNL1       -0.2497
     15 C         138.3665  138.4801  165.9673 C.2     1  UNL1        0.3222
     16 C         138.9087  139.8677  165.7921 C.3     1  UNL1        0.1418
     17 C         138.2451  140.9856  165.0436 C.3     1  UNL1        0.1027
     18 N         139.1360  142.1898  165.1234 N.pl3   1  UNL1       -0.3322
     19 C         140.3502  141.8161  165.9212 C.ar    1  UNL1        0.0412
     20 C         141.5655  142.5972  166.3247 C.ar    1  UNL1        0.0140
     21 C         142.6403  141.9432  167.1414 C.ar    1  UNL1        0.0012
     22 C         142.4998  140.5080  167.5546 C.ar    1  UNL1       -0.0002
     23 C         141.2845  139.7270  167.1511 C.ar    1  UNL1       -0.0025
     24 C         140.2096  140.3810  166.3344 C.ar    1  UNL1        0.0028
     25 H         138.9556  143.0707  164.7226 H       1  UNL1        0.1468
@<TRIPOS>BOND
     1    14    15    2
     2    15     1    1
     3     2     1    1
     4     2     3    1
     5     4     3    1
     6     4     5    1
     7     6     5    1
     8     6     7    1
     9     7     8    1
    10     8     9    1
    11     8    10    1
    12    10    11    1
    13    11    12    1
    14    12    13    2
    15    15    16    1
    16    16    17    1
    17    17    18    1
    18    18    19    1
    19    19    20   ar
    20    20    21   ar
    21    21    22   ar
    22    22    23   ar
    23    23    24   ar
    24     9     2    1
    25    24    16    1
    26    10     4    1
    27    24    19   ar
    28    12     6    1
    29    18    25    1
@<TRIPOS>MOLECULE
*****
 25 29 0 0 0
SMALL
GASTEIGER

@<TRIPOS>ATOM
      1 O         142.0684  138.5420  164.8221 O.3     1  UNL1       -0.4519
      2 C         141.5369  139.1979  166.0620 C.3     1  UNL1        0.1715
      3 C         142.4760  139.5931  167.1628 C.3     1  UNL1        0.0596
      4 C         141.9445  140.2489  168.4027 C.3     1  UNL1        0.0619
      5 C         142.8836  140.6442  169.5036 C.3     1  UNL1        0.0235
      6 C         142.3521  141.3000  170.7435 C.3     1  UNL1        0.0617
      7 C         141.1264  140.7050  169.1389 C.3     1  UNL1        0.0235
      8 C         139.5348  140.1144  167.4409 C.3     1  UNL1        0.0619
      9 C         140.0663  139.4585  166.2011 C.3     1  UNL1        0.0596
     10 N         140.4739  140.5096  168.5417 N.3     1  UNL1       -0.2689
     11 C         139.9424  141.1655  169.7817 C.3     1  UNL1        0.1375
     12 C         140.8815  141.5607  170.8825 C.2     1  UNL1        0.1664
     13 O         140.3500  142.2165  172.1224 O.2     1  UNL1       -0.2946
     14 O         144.1415  138.7328  163.2678 O.2     1  UNL1       -0.2497
     15 C         142.8965  139.3315  163.8521 C.2     1  UNL1        0.3222
     16 C         142.4795  140.7198  163.4663 C.3     1  UNL1        0.1418
     17 C         141.3818  141.0764  162.5081 C.3     1  UNL1        0.1027
     18 N         141.3109  142.5723  162.4205 N.pl3   1  UNL1       -0.3322
     19 C         142.3647  143.1400  163.3246 C.ar    1  UNL1        0.0412
     20 C         142.7599  144.5515  163.6428 C.ar    1  UNL1        0.0140
     21 C         143.8773  144.8182  164.6072 C.ar    1  UNL1        0.0012
     22 C         144.5996  143.6734  165.2536 C.ar    1  UNL1       -0.0002
     23 C         144.2043  142.2618  164.9354 C.ar    1  UNL1       -0.0025
     24 C         143.0869  141.9951  163.9709 C.ar    1  UNL1        0.0028
     25 H         140.6829  143.0904  161.8669 H       1  UNL1        0.1468
@<TRIPOS>BOND
     1    14    15    2
     2    15     1    1
     3     2     1    1
     4     2     3    1
     5     4     3    1
     6     4     5    1
     7     6     5    1
     8     6     7    1
     9     7     8    1
    10     8     9    1
    11     8    10    1
    12    10    11    1
    13    11    12    1
    14    12    13    2
    15    15    16    1
    16    16    17    1
    17    17    18    1
    18    18    19    1
    19    19    20   ar
    20    20    21   ar
    21    21    22   ar
    22    22    23   ar
    23    23    24   ar
    24     9     2    1
    25    24    16    1
    26    10     4    1
    27    24    19   ar
    28    12     6    1
    29    18    25    1
@<TRIPOS>MOLECULE
*****
 25 29 0 0 0
SMALL
GASTEIGER

@<TRIPOS>ATOM
      1 O         138.9745  140.4328  163.8018 O.3     1  UNL1       -0.4519
      2 C         139.1058  140.3641  165.2945 C.3     1  UNL1        0.1715
      3 C         140.0455  141.2902  166.0081 C.3     1  UNL1        0.0596
      4 C         140.1768  141.2214  167.5008 C.3     1  UNL1        0.0619
      5 C         141.1165  142.1476  168.2145 C.3     1  UNL1        0.0235
      6 C         141.2478  142.0788  169.7071 C.3     1  UNL1        0.0617
      7 C         139.9617  140.8290  168.6049 C.3     1  UNL1        0.0235
      8 C         138.4289  139.3003  167.5661 C.3     1  UNL1        0.0619
      9 C         138.2976  139.3691  166.0735 C.3     1  UNL1        0.0596
     10 N         139.3685  140.2265  168.2797 N.3     1  UNL1       -0.2689
     11 C         139.4999  140.1577  169.7724 C.3     1  UNL1        0.1375
     12 C         140.4395  141.0839  170.4861 C.2     1  UNL1        0.1664
     13 O         140.5709  141.0151  171.9788 O.2     1  UNL1       -0.2946
     14 O         137.2160  141.5569  162.2545 O.2     1  UNL1       -0.2497
     15 C         138.4114  141.6631  163.1543 C.2     1  UNL1        0.3222
     16 C         139.0438  142.9997  163.4066 C.3     1  UNL1        0.1418
     17 C         138.3311  144.2424  163.8514 C.3     1  UNL1        0.1027
     18 N         139.3467  145.3391  163.9781 N.pl3   1  UNL1       -0.3322
     19 C         140.6871  144.7740  163.6117 C.ar    1  UNL1        0.0412
     20 C         142.0539  145.3892  163.5540 C.ar    1  UNL1        0.0140
     21 C         143.2334  144.5588  163.1432 C.ar    1  UNL1        0.0012
     22 C         143.0462  143.1129  162.7900 C.ar    1  UNL1       -0.0002
     23 C         141.6794  142.4977  162.8476 C.ar    1  UNL1       -0.0025
     24 C         140.4999  143.3283  163.2585 C.ar    1  UNL1        0.0028
     25 H         139.1654  146.2667  164.2534 H       1  UNL1        0.1468
@<TRIPOS>BOND
     1    14    15    2
     2    15     1    1
     3     2     1    1
     4     2     3    1
     5     4     3    1
     6     4     5    1
     7     6     5    1
     8     6     7    1
     9     7     8    1
    10     8     9    1
    11     8    10    1
    12    10    11    1
    13    11    12    1
    14    12    13    2
    15    15    16    1
    16    16    17    1
    17    17    18    1
    18    18    19    1
    19    19    20   ar
    20    20    21   ar
    21    21    22   ar
    22    22    23   ar
    23    23    24   ar
    24     9     2    1
    25    24    16    1
    26    10     4    1
    27    24    19   ar
    28    12     6    1
    29    18    25    1
@<TRIPOS>MOLECULE
*****
 25 29 0 0 0
SMALL
GASTEIGER

@<TRIPOS>ATOM
      1 O         138.5739  139.9029  163.9037 O.3     1  UNL1       -0.4519
      2 C         138.8074  140.0288  165.3801 C.3     1  UNL1        0.1715
      3 C         139.6890  141.1207  165.9096 C.3     1  UNL1        0.0596
      4 C         139.9225  141.2465  167.3859 C.3     1  UNL1        0.0619
      5 C         140.8041  142.3385  167.9155 C.3     1  UNL1        0.0235
      6 C         141.0376  142.4643  169.3918 C.3     1  UNL1        0.0617
      7 C         139.8210  140.9721  168.5408 C.3     1  UNL1        0.0235
      8 C         138.3929  139.1884  167.8033 C.3     1  UNL1        0.0619
      9 C         138.1594  139.0626  166.3269 C.3     1  UNL1        0.0596
     10 N         139.2744  140.2803  168.3328 N.3     1  UNL1       -0.2689
     11 C         139.5080  140.4062  169.8092 C.3     1  UNL1        0.1375
     12 C         140.3895  141.4981  170.3387 C.2     1  UNL1        0.1664
     13 O         140.6230  141.6240  171.8151 O.2     1  UNL1       -0.2946
     14 O         138.8504  137.7059  162.5449 O.2     1  UNL1       -0.2497
     15 C         139.4278  138.9805  163.0852 C.2     1  UNL1        0.3222
     16 C         140.8592  139.3327  162.8071 C.3     1  UNL1        0.1418
     17 C         141.3830  139.9686  161.5536 C.3     1  UNL1        0.1027
     18 N         142.8656  140.1397  161.7054 N.pl3   1  UNL1       -0.3322
     19 C         143.2578  139.6095  163.0527 C.ar    1  UNL1        0.0412
     20 C         144.5839  139.5164  163.7474 C.ar    1  UNL1        0.0140
     21 C         144.6701  138.9245  165.1230 C.ar    1  UNL1        0.0012
     22 C         143.4300  138.4257  165.8039 C.ar    1  UNL1       -0.0002
     23 C         142.1039  138.5188  165.1091 C.ar    1  UNL1       -0.0025
     24 C         142.0178  139.1107  163.7335 C.ar    1  UNL1        0.0028
     25 H         143.4742  140.5313  161.0380 H       1  UNL1        0.1468
@<TRIPOS>BOND
     1    14    15    2
     2    15     1    1
     3     2     1    1
     4     2     3    1
     5     4     3    1
     6     4     5    1
     7     6     5    1
     8     6     7    1
     9     7     8    1
    10     8     9    1
    11     8    10    1
    12    10    11    1
    13    11    12    1
    14    12    13    2
    15    15    16    1
    16    16    17    1
    17    17    18    1
    18    18    19    1
    19    19    20   ar
    20    20    21   ar
    21    21    22   ar
    22    22    23   ar
    23    23    24   ar
    24     9     2    1
    25    24    16    1
    26    10     4    1
    27    24    19   ar
    28    12     6    1
    29    18    25    1
@<TRIPOS>MOLECULE
*****
 25 29 0 0 0
SMALL
GASTEIGER

@<TRIPOS>ATOM
      1 O         143.9349  141.9329  164.7067 O.3     1  UNL1       -0.4519
      2 C         142.8745  141.3989  165.6236 C.3     1  UNL1        0.1715
      3 C         142.4538  142.1915  166.8255 C.3     1  UNL1        0.0596
      4 C         141.3934  141.6575  167.7423 C.3     1  UNL1        0.0619
      5 C         140.9726  142.4501  168.9444 C.3     1  UNL1        0.0235
      6 C         139.9123  141.9161  169.8612 C.3     1  UNL1        0.0617
      7 C         140.5784  140.8893  168.1486 C.3     1  UNL1        0.0235
      8 C         141.1747  139.5384  166.2552 C.3     1  UNL1        0.0619
      9 C         142.2350  140.0724  165.3384 C.3     1  UNL1        0.0596
     10 N         140.7539  140.3310  167.4572 N.3     1  UNL1       -0.2689
     11 C         139.6936  139.7970  168.3741 C.3     1  UNL1        0.1375
     12 C         139.2728  140.5896  169.5760 C.2     1  UNL1        0.1664
     13 O         138.2124  140.0556  170.4929 O.2     1  UNL1       -0.2946
     14 O         144.1832  142.1056  162.1263 O.2     1  UNL1       -0.2497
     15 C         143.5493  142.5691  163.4042 C.2     1  UNL1        0.3222
     16 C         142.5296  143.6691  163.3797 C.3     1  UNL1        0.1418
     17 C         142.8139  145.1374  163.4945 C.3     1  UNL1        0.1027
     18 N         141.5066  145.8696  163.4218 N.pl3   1  UNL1       -0.3322
     19 C         140.4146  144.8537  163.2621 C.ar    1  UNL1        0.0412
     20 C         138.9262  144.9913  163.1370 C.ar    1  UNL1        0.0140
     21 C         138.0701  143.7691  162.9859 C.ar    1  UNL1        0.0012
     22 C         138.7023  142.4090  162.9598 C.ar    1  UNL1       -0.0002
     23 C         140.1907  142.2714  163.0849 C.ar    1  UNL1       -0.0025
     24 C         141.0468  143.4937  163.2361 C.ar    1  UNL1        0.0028
     25 H         141.3865  146.8456  163.4704 H       1  UNL1        0.1468
@<TRIPOS>BOND
     1    14    15    2
     2    15     1    1
     3     2     1    1
     4     2     3    1
     5     4     3    1
     6     4     5    1
     7     6     5    1
     8     6     7    1
     9     7     8    1
    10     8     9    1
    11     8    10    1
    12    10    11    1
    13    11    12    1
    14    12    13    2
    15    15    16    1
    16    16    17    1
    17    17    18    1
    18    18    19    1
    19    19    20   ar
    20    20    21   ar
    21    21    22   ar
    22    22    23   ar
    23    23    24   ar
    24     9     2    1
    25    24    16    1
    26    10     4    1
    27    24    19   ar
    28    12     6    1
    29    18    25    1
