@<TRIPOS>MOLECULE
*****
 29 32 0 0 0
SMALL
GASTEIGER

@<TRIPOS>ATOM
      1 C         142.8595  139.4278  164.4411 C.3     1  UNL1        0.0610
      2 C         142.7684  140.9184  164.5819 C.3     1  UNL1        0.0375
      3 C         142.7294  141.5418  165.9457 C.3     1  UNL1        0.0950
      4 N         142.7814  140.6747  167.1685 N.pl3   1  UNL1       -0.2785
      5 C         142.8725  139.1841  167.0276 C.3     1  UNL1        0.0950
      6 C         142.9115  138.5607  165.6639 C.3     1  UNL1        0.0375
      7 C         142.7423  141.2982  168.5323 C.ar    1  UNL1        0.2163
      8 N         143.3678  142.6045  168.9228 N.ar    1  UNL1       -0.1804
      9 C         143.0830  142.8385  170.3768 C.ar    1  UNL1        0.2331
     10 N         143.5225  144.0257  171.1813 N.pl3   1  UNL1       -0.3262
     11 N         142.2815  141.6768  170.8849 N.ar    1  UNL1       -0.1354
     12 N         142.0710  140.7249  169.7450 N.ar    1  UNL1       -0.2450
     13 H         144.0483  144.7412  170.7561 H       1  UNL1        0.1452
     14 H         143.2851  144.0894  172.1347 H       1  UNL1        0.1452
     15 H         141.5786  139.8733  169.7856 H       1  UNL1        0.1919
     16 C         142.9537  137.9226  161.1487 C.3     1  UNL1        0.1460
     17 C         143.9813  138.4696  162.0946 C.3     1  UNL1        0.1034
     18 N         142.8986  138.8043  163.0773 N.3     1  UNL1       -0.2706
     19 C         141.8710  138.2573  162.1314 C.3     1  UNL1        0.0906
     20 C         142.6105  138.1066  158.5799 C.3     1  UNL1        0.1741
     21 O         142.9927  137.2991  159.7850 O.3     1  UNL1       -0.3508
     22 C         140.3788  138.1072  162.1573 C.3     1  UNL1        0.0448
     23 C         139.6318  138.2611  163.4490 C.ar    1  UNL1       -0.0207
     24 C         139.0593  139.5942  163.8300 C.ar    1  UNL1       -0.0034
     25 C         138.3124  139.7482  165.1217 C.ar    1  UNL1        0.0111
     26 C         138.1380  138.5691  166.0323 C.ar    1  UNL1        0.0577
     27 CL        137.3910  138.7230  167.3240 Cl      1  UNL1       -0.0822
     28 C         138.7105  137.2360  165.6513 C.ar    1  UNL1        0.0111
     29 C         139.4574  137.0820  164.3596 C.ar    1  UNL1       -0.0034
@<TRIPOS>BOND
     1    20    21    1
     2    16    21    1
     3    16    17    1
     4    17    18    1
     5    18     1    1
     6     1     2    1
     7     2     3    1
     8     3     4    1
     9     4     7    1
    10     7     8   ar
    11     8     9   ar
    12     9    10    1
    13     9    11   ar
    14    11    12   ar
    15     4     5    1
    16     5     6    1
    17    18    19    1
    18    19    22    1
    19    22    23    1
    20    23    24   ar
    21    24    25   ar
    22    25    26   ar
    23    26    27    1
    24    26    28   ar
    25    28    29   ar
    26    19    16    1
    27    29    23   ar
    28     6     1    1
    29    12     7   ar
    30    10    13    1
    31    10    14    1
    32    12    15    1
@<TRIPOS>MOLECULE
*****
 29 32 0 0 0
SMALL
GASTEIGER

@<TRIPOS>ATOM
      1 C         138.6893  139.9931  164.4084 C.3     1  UNL1        0.0610
      2 C         137.9855  139.1489  165.4290 C.3     1  UNL1        0.0375
      3 C         138.4160  139.1938  166.8652 C.3     1  UNL1        0.0950
      4 N         139.5504  140.0829  167.2806 N.pl3   1  UNL1       -0.2785
      5 C         140.2543  140.9271  166.2600 C.3     1  UNL1        0.0950
      6 C         139.8237  140.8822  164.8238 C.3     1  UNL1        0.0375
      7 C         139.9810  140.1277  168.7169 C.ar    1  UNL1        0.2163
      8 N         141.3774  140.3627  169.2118 N.ar    1  UNL1       -0.1804
      9 C         141.3502  140.3257  170.7111 C.ar    1  UNL1        0.2331
     10 N         142.5292  140.5136  171.6192 N.pl3   1  UNL1       -0.3262
     11 N         139.9370  140.0678  171.1428 N.ar    1  UNL1       -0.1354
     12 N         139.0908  139.9454  169.9103 N.ar    1  UNL1       -0.2450
     13 H         143.4221  140.6789  171.2388 H       1  UNL1        0.1452
     14 H         142.4101  140.4716  172.5955 H       1  UNL1        0.1452
     15 H         138.1213  139.7753  169.8885 H       1  UNL1        0.1919
     16 C         137.6499  139.8849  160.9410 C.3     1  UNL1        0.1460
     17 C         137.9571  138.8564  161.9888 C.3     1  UNL1        0.1034
     18 N         138.2588  139.9482  162.9721 N.3     1  UNL1       -0.2706
     19 C         137.9516  140.9767  161.9243 C.3     1  UNL1        0.0906
     20 C         138.0267  140.5480  158.4574 C.3     1  UNL1        0.1741
     21 O         137.2194  139.8401  159.5049 O.3     1  UNL1       -0.3508
     22 C         137.9477  142.4760  161.8787 C.3     1  UNL1        0.0448
     23 C         139.1311  143.2449  162.3873 C.ar    1  UNL1       -0.0207
     24 C         138.9694  144.1987  163.5336 C.ar    1  UNL1       -0.0034
     25 C         140.1526  144.9676  164.0422 C.ar    1  UNL1        0.0111
     26 C         141.4976  144.7827  163.4043 C.ar    1  UNL1        0.0577
     27 CL        142.6809  145.5516  163.9129 Cl      1  UNL1       -0.0822
     28 C         141.6593  143.8289  162.2580 C.ar    1  UNL1        0.0111
     29 C         140.4760  143.0600  161.7494 C.ar    1  UNL1       -0.0034
@<TRIPOS>BOND
     1    20    21    1
     2    16    21    1
     3    16    17    1
     4    17    18    1
     5    18     1    1
     6     1     2    1
     7     2     3    1
     8     3     4    1
     9     4     7    1
    10     7     8   ar
    11     8     9   ar
    12     9    10    1
    13     9    11   ar
    14    11    12   ar
    15     4     5    1
    16     5     6    1
    17    18    19    1
    18    19    22    1
    19    22    23    1
    20    23    24   ar
    21    24    25   ar
    22    25    26   ar
    23    26    27    1
    24    26    28   ar
    25    28    29   ar
    26    19    16    1
    27    29    23   ar
    28     6     1    1
    29    12     7   ar
    30    10    13    1
    31    10    14    1
    32    12    15    1
@<TRIPOS>MOLECULE
*****
 29 32 0 0 0
SMALL
GASTEIGER

@<TRIPOS>ATOM
      1 C         139.5244  139.6041  163.8729 C.3     1  UNL1        0.0610
      2 C         138.3935  139.2961  164.8089 C.3     1  UNL1        0.0375
      3 C         138.5958  139.4058  166.2911 C.3     1  UNL1        0.0950
      4 N         139.9289  139.8235  166.8373 N.pl3   1  UNL1       -0.2785
      5 C         141.0598  140.1316  165.9013 C.3     1  UNL1        0.0950
      6 C         140.8575  140.0219  164.4191 C.3     1  UNL1        0.0375
      7 C         140.1311  139.9332  168.3196 C.ar    1  UNL1        0.2163
      8 N         141.4388  140.1676  169.0161 N.ar    1  UNL1       -0.1804
      9 C         141.1771  140.2070  170.4926 C.ar    1  UNL1        0.2331
     10 N         142.2044  140.4192  171.5647 N.pl3   1  UNL1       -0.3262
     11 N         139.7076  139.9969  170.7086 N.ar    1  UNL1       -0.1354
     12 N         139.0612  139.8277  169.3656 N.ar    1  UNL1       -0.2450
     13 H         143.1497  140.5487  171.3220 H       1  UNL1        0.1452
     14 H         141.9334  140.4289  172.5112 H       1  UNL1        0.1452
     15 H         138.1030  139.6744  169.1999 H       1  UNL1        0.1919
     16 C         139.0362  139.3395  160.2943 C.3     1  UNL1        0.1460
     17 C         139.2001  138.3592  161.4178 C.3     1  UNL1        0.1034
     18 N         139.3222  139.4945  162.3906 N.3     1  UNL1       -0.2706
     19 C         139.1583  140.4747  161.2671 C.3     1  UNL1        0.0906
     20 C         140.0188  139.2206  157.8922 C.3     1  UNL1        0.1741
     21 O         138.8340  139.2298  158.8121 O.3     1  UNL1       -0.3508
     22 C         139.1288  141.9706  161.1605 C.3     1  UNL1        0.0448
     23 C         138.9532  142.8071  162.3932 C.ar    1  UNL1       -0.0207
     24 C         140.0892  143.6466  162.8980 C.ar    1  UNL1       -0.0034
     25 C         139.9137  144.4830  164.1306 C.ar    1  UNL1        0.0111
     26 C         138.6023  144.4800  164.8586 C.ar    1  UNL1        0.0577
     27 CL        138.4267  145.3164  166.0913 Cl      1  UNL1       -0.0822
     28 C         137.4663  143.6405  164.3539 C.ar    1  UNL1        0.0111
     29 C         137.6418  142.8040  163.1212 C.ar    1  UNL1       -0.0034
@<TRIPOS>BOND
     1    20    21    1
     2    16    21    1
     3    16    17    1
     4    17    18    1
     5    18     1    1
     6     1     2    1
     7     2     3    1
     8     3     4    1
     9     4     7    1
    10     7     8   ar
    11     8     9   ar
    12     9    10    1
    13     9    11   ar
    14    11    12   ar
    15     4     5    1
    16     5     6    1
    17    18    19    1
    18    19    22    1
    19    22    23    1
    20    23    24   ar
    21    24    25   ar
    22    25    26   ar
    23    26    27    1
    24    26    28   ar
    25    28    29   ar
    26    19    16    1
    27    29    23   ar
    28     6     1    1
    29    12     7   ar
    30    10    13    1
    31    10    14    1
    32    12    15    1
@<TRIPOS>MOLECULE
*****
 29 32 0 0 0
SMALL
GASTEIGER

@<TRIPOS>ATOM
      1 C         141.1829  142.4190  165.4343 C.3     1  UNL1        0.0610
      2 C         141.9513  141.8804  164.2641 C.3     1  UNL1        0.0375
      3 C         141.8436  142.5477  162.9250 C.3     1  UNL1        0.0950
      4 N         140.9676  143.7535  162.7562 N.pl3   1  UNL1       -0.2785
      5 C         140.1991  144.2921  163.9264 C.3     1  UNL1        0.0950
      6 C         140.3068  143.6248  165.2654 C.3     1  UNL1        0.0375
      7 C         140.8599  144.4208  161.4170 C.ar    1  UNL1        0.2163
      8 N         141.9937  144.6900  160.4725 N.ar    1  UNL1       -0.1804
      9 C         141.4342  145.3716  159.2590 C.ar    1  UNL1        0.2331
     10 N         142.2168  145.8221  158.0613 N.pl3   1  UNL1       -0.3262
     11 N         139.9546  145.5236  159.4537 N.ar    1  UNL1       -0.1354
     12 N         139.5997  144.9359  160.7874 N.ar    1  UNL1       -0.2450
     13 H         143.1899  145.6771  158.0261 H       1  UNL1        0.1452
     14 H         141.7573  146.2627  157.3103 H       1  UNL1        0.1452
     15 H         138.6980  144.8955  161.1804 H       1  UNL1        0.1919
     16 C         141.4426  140.8081  168.6672 C.3     1  UNL1        0.1460
     17 C         142.2273  141.8595  167.9400 C.3     1  UNL1        0.1034
     18 N         141.2905  141.7517  166.7734 N.3     1  UNL1       -0.2706
     19 C         140.5058  140.7003  167.5007 C.3     1  UNL1        0.0906
     20 C         140.9005  140.7610  171.2077 C.3     1  UNL1        0.1741
     21 O         141.5502  140.1408  170.0063 O.3     1  UNL1       -0.3508
     22 C         139.2886  139.8807  167.1901 C.3     1  UNL1        0.0448
     23 C         138.9770  139.5088  165.7706 C.ar    1  UNL1       -0.0207
     24 C         138.2630  140.4818  164.8798 C.ar    1  UNL1       -0.0034
     25 C         137.9514  140.1099  163.4605 C.ar    1  UNL1        0.0111
     26 C         138.3538  138.7650  162.9320 C.ar    1  UNL1        0.0577
     27 CL        138.0422  138.3931  161.5126 Cl      1  UNL1       -0.0822
     28 C         139.0678  137.7921  163.8228 C.ar    1  UNL1        0.0111
     29 C         139.3794  138.1639  165.2421 C.ar    1  UNL1       -0.0034
@<TRIPOS>BOND
     1    20    21    1
     2    16    21    1
     3    16    17    1
     4    17    18    1
     5    18     1    1
     6     1     2    1
     7     2     3    1
     8     3     4    1
     9     4     7    1
    10     7     8   ar
    11     8     9   ar
    12     9    10    1
    13     9    11   ar
    14    11    12   ar
    15     4     5    1
    16     5     6    1
    17    18    19    1
    18    19    22    1
    19    22    23    1
    20    23    24   ar
    21    24    25   ar
    22    25    26   ar
    23    26    27    1
    24    26    28   ar
    25    28    29   ar
    26    19    16    1
    27    29    23   ar
    28     6     1    1
    29    12     7   ar
    30    10    13    1
    31    10    14    1
    32    12    15    1
@<TRIPOS>MOLECULE
*****
 29 32 0 0 0
SMALL
GASTEIGER

@<TRIPOS>ATOM
      1 C         141.8461  142.5275  166.0061 C.3     1  UNL1        0.0610
      2 C         140.3881  142.7553  165.7377 C.3     1  UNL1        0.0375
      3 C         139.9610  143.5415  164.5338 C.3     1  UNL1        0.0950
      4 N         140.9921  144.0999  163.5983 N.pl3   1  UNL1       -0.2785
      5 C         142.4501  143.8721  163.8668 C.3     1  UNL1        0.0950
      6 C         142.8772  143.0859  165.0707 C.3     1  UNL1        0.0375
      7 C         140.5650  144.8862  162.3944 C.ar    1  UNL1        0.2163
      8 N         140.8379  144.5262  160.9640 N.ar    1  UNL1       -0.1804
      9 C         140.2316  145.5879  160.0950 C.ar    1  UNL1        0.2331
     10 N         140.2668  145.6267  158.5959 N.pl3   1  UNL1       -0.3262
     11 N         139.5840  146.6041  160.9883 N.ar    1  UNL1       -0.1354
     12 N         139.7901  146.1704  162.4094 N.ar    1  UNL1       -0.2450
     13 H         140.7188  144.9095  158.0954 H       1  UNL1        0.1452
     14 H         139.8378  146.3694  158.1125 H       1  UNL1        0.1452
     15 H         139.4724  146.6452  163.2112 H       1  UNL1        0.1919
     16 C         142.8772  140.6292  168.9127 C.3     1  UNL1        0.1460
     17 C         142.6724  142.0850  168.6145 C.3     1  UNL1        0.1034
     18 N         142.2732  141.7412  167.2101 N.3     1  UNL1       -0.2706
     19 C         142.4780  140.2854  167.5082 C.3     1  UNL1        0.0906
     20 C         142.7621  138.4626  170.3418 C.3     1  UNL1        0.1741
     21 O         143.3043  139.8429  170.1165 O.3     1  UNL1       -0.3508
     22 C         142.3405  139.0130  166.7260 C.3     1  UNL1        0.0448
     23 C         142.8022  138.9557  165.2999 C.ar    1  UNL1       -0.0207
     24 C         144.0808  139.6292  164.8979 C.ar    1  UNL1       -0.0034
     25 C         144.5426  139.5719  163.4719 C.ar    1  UNL1        0.0111
     26 C         143.7257  138.8411  162.4479 C.ar    1  UNL1        0.0577
     27 CL        144.1875  138.7837  161.0219 Cl      1  UNL1       -0.0822
     28 C         142.4472  138.1676  162.8499 C.ar    1  UNL1        0.0111
     29 C         141.9854  138.2249  164.2759 C.ar    1  UNL1       -0.0034
@<TRIPOS>BOND
     1    20    21    1
     2    16    21    1
     3    16    17    1
     4    17    18    1
     5    18     1    1
     6     1     2    1
     7     2     3    1
     8     3     4    1
     9     4     7    1
    10     7     8   ar
    11     8     9   ar
    12     9    10    1
    13     9    11   ar
    14    11    12   ar
    15     4     5    1
    16     5     6    1
    17    18    19    1
    18    19    22    1
    19    22    23    1
    20    23    24   ar
    21    24    25   ar
    22    25    26   ar
    23    26    27    1
    24    26    28   ar
    25    28    29   ar
    26    19    16    1
    27    29    23   ar
    28     6     1    1
    29    12     7   ar
    30    10    13    1
    31    10    14    1
    32    12    15    1
@<TRIPOS>MOLECULE
*****
 29 32 0 0 0
SMALL
GASTEIGER

@<TRIPOS>ATOM
      1 C         139.2833  141.7810  164.2716 C.3     1  UNL1        0.0610
      2 C         138.9042  140.4251  164.7891 C.3     1  UNL1        0.0375
      3 C         139.1837  140.0624  166.2175 C.3     1  UNL1        0.0950
      4 N         139.8422  141.0556  167.1284 N.pl3   1  UNL1       -0.2785
      5 C         140.2213  142.4115  166.6110 C.3     1  UNL1        0.0950
      6 C         139.9419  142.7742  165.1826 C.3     1  UNL1        0.0375
      7 C         140.1217  140.6929  168.5569 C.ar    1  UNL1        0.2163
      8 N         141.4011  140.9479  169.2972 N.ar    1  UNL1       -0.1804
      9 C         141.2410  140.4241  170.6936 C.ar    1  UNL1        0.2331
     10 N         142.2772  140.4709  171.7771 N.pl3   1  UNL1       -0.3262
     11 N         139.8625  139.8454  170.8163 N.ar    1  UNL1       -0.1354
     12 N         139.1708  140.0115  169.4957 N.ar    1  UNL1       -0.2450
     13 H         143.1578  140.8735  171.5990 H       1  UNL1        0.1452
     14 H         142.0768  140.0989  172.6663 H       1  UNL1        0.1452
     15 H         138.2537  139.7238  169.2826 H       1  UNL1        0.1919
     16 C         138.6088  142.6567  160.8231 C.3     1  UNL1        0.1460
     17 C         137.7648  142.3180  162.0160 C.3     1  UNL1        0.1034
     18 N         139.0039  142.1437  162.8432 N.3     1  UNL1       -0.2706
     19 C         139.8479  142.4824  161.6503 C.3     1  UNL1        0.0906
     20 C         138.7638  142.1030  158.2894 C.3     1  UNL1        0.1741
     21 O         138.3294  143.0194  159.3947 O.3     1  UNL1       -0.3508
     22 C         141.3208  142.5987  161.3917 C.3     1  UNL1        0.0448
     23 C         142.2523  142.9613  162.5102 C.ar    1  UNL1       -0.0207
     24 C         142.9413  141.8825  163.2920 C.ar    1  UNL1       -0.0034
     25 C         143.8728  142.2450  164.4104 C.ar    1  UNL1        0.0111
     26 C         144.1153  143.6865  164.7470 C.ar    1  UNL1        0.0577
     27 CL        145.0468  144.0492  165.8654 Cl      1  UNL1       -0.0822
     28 C         143.4263  144.7654  163.9651 C.ar    1  UNL1        0.0111
     29 C         142.4948  144.4028  162.8467 C.ar    1  UNL1       -0.0034
@<TRIPOS>BOND
     1    20    21    1
     2    16    21    1
     3    16    17    1
     4    17    18    1
     5    18     1    1
     6     1     2    1
     7     2     3    1
     8     3     4    1
     9     4     7    1
    10     7     8   ar
    11     8     9   ar
    12     9    10    1
    13     9    11   ar
    14    11    12   ar
    15     4     5    1
    16     5     6    1
    17    18    19    1
    18    19    22    1
    19    22    23    1
    20    23    24   ar
    21    24    25   ar
    22    25    26   ar
    23    26    27    1
    24    26    28   ar
    25    28    29   ar
    26    19    16    1
    27    29    23   ar
    28     6     1    1
    29    12     7   ar
    30    10    13    1
    31    10    14    1
    32    12    15    1
@<TRIPOS>MOLECULE
*****
 29 32 0 0 0
SMALL
GASTEIGER

@<TRIPOS>ATOM
      1 C         141.4949  139.0828  164.1356 C.3     1  UNL1        0.0610
      2 C         142.3637  138.9217  165.3476 C.3     1  UNL1        0.0375
      3 C         141.8663  139.3660  166.6912 C.3     1  UNL1        0.0950
      4 N         140.5002  139.9712  166.8227 N.pl3   1  UNL1       -0.2785
      5 C         139.6314  140.1323  165.6106 C.3     1  UNL1        0.0950
      6 C         140.1287  139.6881  164.2671 C.3     1  UNL1        0.0375
      7 C         140.0029  140.4155  168.1664 C.ar    1  UNL1        0.2163
      8 N         140.5175  141.5830  168.9552 N.ar    1  UNL1       -0.1804
      9 C         139.7364  141.6593  170.2334 C.ar    1  UNL1        0.2331
     10 N         139.9203  142.6772  171.3197 N.pl3   1  UNL1       -0.3262
     11 N         138.7389  140.5389  170.2347 N.ar    1  UNL1       -0.1354
     12 N         138.9036  139.7703  168.9572 N.ar    1  UNL1       -0.2450
     13 H         140.6055  143.3780  171.2267 H       1  UNL1        0.1452
     14 H         139.3559  142.6445  172.1257 H       1  UNL1        0.1452
     15 H         138.3819  138.9808  168.6854 H       1  UNL1        0.1919
     16 C         142.6956  138.0104  160.8917 C.3     1  UNL1        0.1460
     17 C         141.4962  137.6957  161.7359 C.3     1  UNL1        0.1034
     18 N         141.9922  138.6385  162.7919 N.3     1  UNL1       -0.2706
     19 C         143.1915  138.9532  161.9477 C.3     1  UNL1        0.0906
     20 C         142.7023  138.2463  158.3043 C.3     1  UNL1        0.1741
     21 O         143.1929  137.5662  159.5481 O.3     1  UNL1       -0.3508
     22 C         144.3902  139.8423  162.0975 C.3     1  UNL1        0.0448
     23 C         144.2272  141.2399  162.6175 C.ar    1  UNL1       -0.0207
     24 C         144.6076  141.5628  164.0321 C.ar    1  UNL1       -0.0034
     25 C         144.4446  142.9603  164.5521 C.ar    1  UNL1        0.0111
     26 C         143.9011  144.0347  163.6576 C.ar    1  UNL1        0.0577
     27 CL        143.7381  145.4323  164.1777 Cl      1  UNL1       -0.0822
     28 C         143.5207  143.7118  162.2431 C.ar    1  UNL1        0.0111
     29 C         143.6837  142.3143  161.7230 C.ar    1  UNL1       -0.0034
@<TRIPOS>BOND
     1    20    21    1
     2    16    21    1
     3    16    17    1
     4    17    18    1
     5    18     1    1
     6     1     2    1
     7     2     3    1
     8     3     4    1
     9     4     7    1
    10     7     8   ar
    11     8     9   ar
    12     9    10    1
    13     9    11   ar
    14    11    12   ar
    15     4     5    1
    16     5     6    1
    17    18    19    1
    18    19    22    1
    19    22    23    1
    20    23    24   ar
    21    24    25   ar
    22    25    26   ar
    23    26    27    1
    24    26    28   ar
    25    28    29   ar
    26    19    16    1
    27    29    23   ar
    28     6     1    1
    29    12     7   ar
    30    10    13    1
    31    10    14    1
    32    12    15    1
@<TRIPOS>MOLECULE
*****
 29 32 0 0 0
SMALL
GASTEIGER

@<TRIPOS>ATOM
      1 C         140.4598  142.9578  165.8056 C.3     1  UNL1        0.0610
      2 C         141.6077  142.4927  164.9595 C.3     1  UNL1        0.0375
      3 C         141.7295  142.9587  163.5390 C.3     1  UNL1        0.0950
      4 N         140.7033  143.8899  162.9646 N.pl3   1  UNL1       -0.2785
      5 C         139.5554  144.3550  163.8107 C.3     1  UNL1        0.0950
      6 C         139.4337  143.8889  165.2312 C.3     1  UNL1        0.0375
      7 C         140.8251  144.3560  161.5440 C.ar    1  UNL1        0.2163
      8 N         139.8272  144.1186  160.4495 N.ar    1  UNL1       -0.1804
      9 C         140.3515  144.7571  159.1976 C.ar    1  UNL1        0.2331
     10 N         139.6730  144.7626  157.8599 N.pl3   1  UNL1       -0.3262
     11 N         141.6735  145.3891  159.5183 N.ar    1  UNL1       -0.1354
     12 N         141.9662  145.1412  160.9684 N.ar    1  UNL1       -0.2450
     13 H         138.8017  144.3181  157.7480 H       1  UNL1        0.1452
     14 H         140.0989  145.2108  157.0937 H       1  UNL1        0.1452
     15 H         142.7667  145.4412  161.4567 H       1  UNL1        0.1919
     16 C         140.1657  141.8325  169.2351 C.3     1  UNL1        0.1460
     17 C         140.6062  143.1026  168.5697 C.3     1  UNL1        0.1034
     18 N         140.3380  142.4917  167.2262 N.3     1  UNL1       -0.2706
     19 C         139.8975  141.2216  167.8917 C.3     1  UNL1        0.0906
     20 C         141.2611  140.9032  171.4000 C.3     1  UNL1        0.1741
     21 O         140.0439  141.3664  170.6556 O.3     1  UNL1       -0.3508
     22 C         139.3964  139.8916  167.4123 C.3     1  UNL1        0.0448
     23 C         139.9303  139.3031  166.1400 C.ar    1  UNL1       -0.0207
     24 C         138.9946  138.9773  165.0138 C.ar    1  UNL1       -0.0034
     25 C         139.5285  138.3889  163.7416 C.ar    1  UNL1        0.0111
     26 C         140.9981  138.1262  163.5955 C.ar    1  UNL1        0.0577
     27 CL        141.5320  137.5377  162.3232 Cl      1  UNL1       -0.0822
     28 C         141.9337  138.4520  164.7217 C.ar    1  UNL1        0.0111
     29 C         141.3999  139.0404  165.9940 C.ar    1  UNL1       -0.0034
@<TRIPOS>BOND
     1    20    21    1
     2    16    21    1
     3    16    17    1
     4    17    18    1
     5    18     1    1
     6     1     2    1
     7     2     3    1
     8     3     4    1
     9     4     7    1
    10     7     8   ar
    11     8     9   ar
    12     9    10    1
    13     9    11   ar
    14    11    12   ar
    15     4     5    1
    16     5     6    1
    17    18    19    1
    18    19    22    1
    19    22    23    1
    20    23    24   ar
    21    24    25   ar
    22    25    26   ar
    23    26    27    1
    24    26    28   ar
    25    28    29   ar
    26    19    16    1
    27    29    23   ar
    28     6     1    1
    29    12     7   ar
    30    10    13    1
    31    10    14    1
    32    12    15    1
@<TRIPOS>MOLECULE
*****
 29 32 0 0 0
SMALL
GASTEIGER

@<TRIPOS>ATOM
      1 C         138.5133  139.3292  167.1395 C.3     1  UNL1        0.0610
      2 C         138.9212  139.9577  168.4389 C.3     1  UNL1        0.0375
      3 C         138.2245  139.5719  169.7100 C.3     1  UNL1        0.0950
      4 N         137.1198  138.5575  169.6817 N.pl3   1  UNL1       -0.2785
      5 C         136.7119  137.9290  168.3823 C.3     1  UNL1        0.0950
      6 C         137.4086  138.3149  167.1112 C.3     1  UNL1        0.0375
      7 C         136.4231  138.1717  170.9528 C.ar    1  UNL1        0.2163
      8 N         136.5822  136.8729  171.6863 N.ar    1  UNL1       -0.1804
      9 C         135.7025  136.9154  172.9004 C.ar    1  UNL1        0.2331
     10 N         135.5519  135.8244  173.9188 N.pl3   1  UNL1       -0.3262
     11 N         134.9996  138.2405  172.9174 N.ar    1  UNL1       -0.1354
     12 N         135.4450  139.0169  171.7137 N.ar    1  UNL1       -0.2450
     13 H         136.0585  134.9860  173.8205 H       1  UNL1        0.1452
     14 H         134.9466  135.9468  174.6855 H       1  UNL1        0.1452
     15 H         135.1476  139.9223  171.4665 H       1  UNL1        0.1919
     16 C         140.1953  140.2608  164.0707 C.3     1  UNL1        0.1460
     17 C         139.5501  139.0097  164.5890 C.3     1  UNL1        0.1034
     18 N         139.2100  139.7150  165.8684 N.3     1  UNL1       -0.2706
     19 C         139.8551  140.9661  165.3501 C.3     1  UNL1        0.0906
     20 C         142.1108  139.8941  162.3542 C.3     1  UNL1        0.1741
     21 O         140.8920  140.6466  162.7997 O.3     1  UNL1       -0.3508
     22 C         140.0708  142.3495  165.8883 C.3     1  UNL1        0.0448
     23 C         140.8744  142.5510  167.1388 C.ar    1  UNL1       -0.0207
     24 C         140.2541  143.2206  168.3291 C.ar    1  UNL1       -0.0034
     25 C         141.0576  143.4221  169.5796 C.ar    1  UNL1        0.0111
     26 C         142.4814  142.9539  169.6398 C.ar    1  UNL1        0.0577
     27 CL        143.2849  143.1554  170.8904 Cl      1  UNL1       -0.0822
     28 C         143.1016  142.2843  168.4495 C.ar    1  UNL1        0.0111
     29 C         142.2982  142.0828  167.1990 C.ar    1  UNL1       -0.0034
@<TRIPOS>BOND
     1    20    21    1
     2    16    21    1
     3    16    17    1
     4    17    18    1
     5    18     1    1
     6     1     2    1
     7     2     3    1
     8     3     4    1
     9     4     7    1
    10     7     8   ar
    11     8     9   ar
    12     9    10    1
    13     9    11   ar
    14    11    12   ar
    15     4     5    1
    16     5     6    1
    17    18    19    1
    18    19    22    1
    19    22    23    1
    20    23    24   ar
    21    24    25   ar
    22    25    26   ar
    23    26    27    1
    24    26    28   ar
    25    28    29   ar
    26    19    16    1
    27    29    23   ar
    28     6     1    1
    29    12     7   ar
    30    10    13    1
    31    10    14    1
    32    12    15    1
