@<TRIPOS>MOLECULE
*****
 33 36 0 0 0
SMALL
GASTEIGER

@<TRIPOS>ATOM
      1 C         141.3201  141.0179  170.9072 C.3     1  UNL1        0.1281
      2 O         141.0547  142.1284  171.8801 O.3     1  UNL1       -0.3830
      3 H         140.1498  142.0504  172.2207 H       1  UNL1        0.2104
      4 C         140.2488  140.0119  170.6068 C.3     1  UNL1        0.0519
      5 C         139.1707  140.3376  169.6160 C.3     1  UNL1        0.0923
      6 O         137.4069  138.5494  167.9756 O.2     1  UNL1       -0.2685
      7 C         138.5456  139.2793  167.3270 C.2     1  UNL1        0.2636
      8 N         139.4275  140.1734  168.1472 N.am    1  UNL1       -0.2995
      9 H         140.1748  140.6525  167.7216 H       1  UNL1        0.1498
     10 C         138.8023  139.1151  165.8583 C.2     1  UNL1        0.1341
     11 C         139.8498  138.2381  165.2390 C.2     1  UNL1        0.0249
     12 C         139.7516  138.3801  163.7490 C.2     1  UNL1        0.0155
     13 C         140.5281  137.7555  162.6279 C.2     1  UNL1        0.0009
     14 C         140.1963  138.0957  161.2052 C.2     1  UNL1       -0.0041
     15 C         139.0880  139.0604  160.9036 C.2     1  UNL1       -0.0198
     16 C         138.3116  139.6850  162.0247 C.3     1  UNL1        0.0717
     17 C         138.6433  139.3448  163.4474 C.2     1  UNL1        0.0635
     18 N         138.0567  139.7991  164.7510 N.2     1  UNL1       -0.2448
     19 C         142.6569  140.9134  170.2349 C.3     1  UNL1        0.1018
     20 N         142.7401  140.8367  168.7392 N.3     1  UNL1       -0.2677
     21 C         142.8565  142.0939  167.9291 C.3     1  UNL1        0.0939
     22 C         142.9398  142.0172  166.4333 C.3     1  UNL1        0.1081
     23 N         142.9067  140.6835  165.7477 N.pl3   1  UNL1       -0.3040
     24 C         142.7903  139.4264  166.5578 C.3     1  UNL1        0.1081
     25 C         142.7071  139.5031  168.0535 C.3     1  UNL1        0.0939
     26 C         142.9900  140.6068  164.2520 C.ar    1  UNL1        0.0594
     27 C         144.0934  139.8264  163.6013 C.ar    1  UNL1        0.0154
     28 C         144.1767  139.7498  162.1055 C.ar    1  UNL1        0.0022
     29 C         143.1565  140.4536  161.2605 C.ar    1  UNL1        0.0123
     30 C         142.0531  141.2339  161.9113 C.ar    1  UNL1        0.0694
     31 CL        141.0329  141.9377  161.0663 Cl      1  UNL1       -0.0813
     32 C         141.9698  141.3105  163.4070 C.ar    1  UNL1        0.0815
     33 CL        140.8663  142.0910  164.0577 Cl      1  UNL1       -0.0801
@<TRIPOS>BOND
     1     6     7    2
     2     7     8   am
     3     8     5    1
     4     5     4    1
     5     4     1    1
     6     1     2    1
     7     1    19    1
     8    19    20    1
     9    20    21    1
    10    21    22    1
    11    22    23    1
    12    23    26    1
    13    26    27   ar
    14    27    28   ar
    15    28    29   ar
    16    29    30   ar
    17    30    31    1
    18    30    32   ar
    19    32    33    1
    20    23    24    1
    21    24    25    1
    22     7    10    1
    23    10    11    2
    24    11    12    1
    25    12    13    2
    26    13    14    1
    27    14    15    2
    28    15    16    1
    29    16    17    1
    30    17    18    2
    31    25    20    1
    32    18    10    1
    33    32    26   ar
    34    17    12    1
    35     8     9    1
    36     2     3    1
@<TRIPOS>MOLECULE
*****
 33 36 0 0 0
SMALL
GASTEIGER

@<TRIPOS>ATOM
      1 C         140.7433  141.3447  170.8239 C.3     1  UNL1        0.1281
      2 O         140.7962  142.0831  172.1285 O.3     1  UNL1       -0.3830
      3 H         139.9281  142.4740  172.3143 H       1  UNL1        0.2104
      4 C         139.4675  141.3048  170.0359 C.3     1  UNL1        0.0519
      5 C         139.0940  140.0668  169.2756 C.3     1  UNL1        0.0923
      6 O         137.3391  138.2508  167.6564 O.2     1  UNL1       -0.2685
      7 C         138.3435  139.1295  166.9717 C.2     1  UNL1        0.2636
      8 N         139.2210  140.0375  167.7813 N.am    1  UNL1       -0.2995
      9 H         139.8803  140.6143  167.3319 H       1  UNL1        0.1498
     10 C         138.4705  139.1003  165.4773 C.2     1  UNL1        0.1341
     11 C         139.2345  138.0874  164.6770 C.2     1  UNL1        0.0249
     12 C         139.0919  138.4399  163.2260 C.2     1  UNL1        0.0155
     13 C         139.6279  137.7992  161.9802 C.2     1  UNL1        0.0009
     14 C         139.3118  138.3892  160.6378 C.2     1  UNL1       -0.0041
     15 C         138.4597  139.6199  160.5413 C.2     1  UNL1       -0.0198
     16 C         137.9237  140.2605  161.7872 C.3     1  UNL1        0.0717
     17 C         138.2398  139.6706  163.1295 C.2     1  UNL1        0.0635
     18 N         137.8557  140.0787  164.5209 N.2     1  UNL1       -0.2448
     19 C         141.9661  140.6463  170.3072 C.3     1  UNL1        0.1018
     20 N         142.3886  140.8311  168.8799 N.3     1  UNL1       -0.2677
     21 C         142.5810  139.6360  167.9939 C.3     1  UNL1        0.0939
     22 C         143.0035  139.8208  166.5666 C.3     1  UNL1        0.1081
     23 N         143.2335  141.2007  166.0251 N.pl3   1  UNL1       -0.3040
     24 C         143.0411  142.3957  166.9111 C.3     1  UNL1        0.1081
     25 C         142.6187  142.2109  168.3384 C.3     1  UNL1        0.0939
     26 C         143.6560  141.3855  164.5978 C.ar    1  UNL1        0.0594
     27 C         145.1109  141.5187  164.2575 C.ar    1  UNL1        0.0154
     28 C         145.5334  141.7035  162.8301 C.ar    1  UNL1        0.0022
     29 C         144.5010  141.7550  161.7431 C.ar    1  UNL1        0.0123
     30 C         143.0463  141.6218  162.0834 C.ar    1  UNL1        0.0694
     31 CL        142.0139  141.6734  160.9963 Cl      1  UNL1       -0.0813
     32 C         142.6238  141.4370  163.5107 C.ar    1  UNL1        0.0815
     33 CL        141.1689  141.3038  163.8510 Cl      1  UNL1       -0.0801
@<TRIPOS>BOND
     1     6     7    2
     2     7     8   am
     3     8     5    1
     4     5     4    1
     5     4     1    1
     6     1     2    1
     7     1    19    1
     8    19    20    1
     9    20    21    1
    10    21    22    1
    11    22    23    1
    12    23    26    1
    13    26    27   ar
    14    27    28   ar
    15    28    29   ar
    16    29    30   ar
    17    30    31    1
    18    30    32   ar
    19    32    33    1
    20    23    24    1
    21    24    25    1
    22     7    10    1
    23    10    11    2
    24    11    12    1
    25    12    13    2
    26    13    14    1
    27    14    15    2
    28    15    16    1
    29    16    17    1
    30    17    18    2
    31    25    20    1
    32    18    10    1
    33    32    26   ar
    34    17    12    1
    35     8     9    1
    36     2     3    1
@<TRIPOS>MOLECULE
*****
 33 36 0 0 0
SMALL
GASTEIGER

@<TRIPOS>ATOM
      1 C         140.0349  142.2651  170.4629 C.3     1  UNL1        0.1281
      2 O         140.6970  142.2665  171.8089 O.3     1  UNL1       -0.3830
      3 H         140.3243  141.5555  172.3534 H       1  UNL1        0.2104
      4 C         138.9717  141.2540  170.1512 C.3     1  UNL1        0.0519
      5 C         139.3279  139.9907  169.4249 C.3     1  UNL1        0.0923
      6 O         137.3792  138.3642  167.8260 O.2     1  UNL1       -0.2685
      7 C         138.4336  139.1706  167.1276 C.2     1  UNL1        0.2636
      8 N         139.4080  139.9839  167.9271 N.am    1  UNL1       -0.2995
      9 H         140.1001  140.5131  167.4687 H       1  UNL1        0.1498
     10 C         138.5137  139.1638  165.6298 C.2     1  UNL1        0.1341
     11 C         139.0629  138.0555  164.7812 C.2     1  UNL1        0.0249
     12 C         138.9473  138.4707  163.3445 C.2     1  UNL1        0.0155
     13 C         139.3270  137.7823  162.0671 C.2     1  UNL1        0.0009
     14 C         139.0861  138.4589  160.7502 C.2     1  UNL1       -0.0041
     15 C         138.4654  139.8239  160.7108 C.2     1  UNL1       -0.0198
     16 C         138.0857  140.5123  161.9882 C.3     1  UNL1        0.0717
     17 C         138.3267  139.8357  163.3051 C.2     1  UNL1        0.0635
     18 N         138.0587  140.2640  164.7174 N.2     1  UNL1       -0.2448
     19 C         140.4360  143.2748  169.4287 C.3     1  UNL1        0.1018
     20 N         140.9504  142.8190  168.0954 N.3     1  UNL1       -0.2677
     21 C         142.2548  142.0836  168.0063 C.3     1  UNL1        0.0939
     22 C         142.7692  141.6279  166.6730 C.3     1  UNL1        0.1081
     23 N         141.9792  141.9075  165.4289 N.pl3   1  UNL1       -0.3040
     24 C         140.6749  142.6428  165.5180 C.3     1  UNL1        0.1081
     25 C         140.1605  143.0986  166.8513 C.3     1  UNL1        0.0939
     26 C         142.4937  141.4517  164.0956 C.ar    1  UNL1        0.0594
     27 C         142.0969  140.1087  163.5578 C.ar    1  UNL1        0.0154
     28 C         142.6113  139.6529  162.2246 C.ar    1  UNL1        0.0022
     29 C         143.5225  140.5401  161.4290 C.ar    1  UNL1        0.0123
     30 C         143.9191  141.8830  161.9668 C.ar    1  UNL1        0.0694
     31 CL        144.8303  142.7702  161.1712 Cl      1  UNL1       -0.0813
     32 C         143.4047  142.3388  163.3001 C.ar    1  UNL1        0.0815
     33 CL        143.8015  143.6818  163.8378 Cl      1  UNL1       -0.0801
@<TRIPOS>BOND
     1     6     7    2
     2     7     8   am
     3     8     5    1
     4     5     4    1
     5     4     1    1
     6     1     2    1
     7     1    19    1
     8    19    20    1
     9    20    21    1
    10    21    22    1
    11    22    23    1
    12    23    26    1
    13    26    27   ar
    14    27    28   ar
    15    28    29   ar
    16    29    30   ar
    17    30    31    1
    18    30    32   ar
    19    32    33    1
    20    23    24    1
    21    24    25    1
    22     7    10    1
    23    10    11    2
    24    11    12    1
    25    12    13    2
    26    13    14    1
    27    14    15    2
    28    15    16    1
    29    16    17    1
    30    17    18    2
    31    25    20    1
    32    18    10    1
    33    32    26   ar
    34    17    12    1
    35     8     9    1
    36     2     3    1
@<TRIPOS>MOLECULE
*****
 33 36 0 0 0
SMALL
GASTEIGER

@<TRIPOS>ATOM
      1 C         141.6139  141.4107  170.6855 C.3     1  UNL1        0.1281
      2 O         142.0865  142.2072  171.8655 O.3     1  UNL1       -0.3830
      3 H         141.3337  142.6696  172.2659 H       1  UNL1        0.2104
      4 C         140.1635  141.4254  170.3031 C.3     1  UNL1        0.0519
      5 C         139.5661  140.2535  169.5820 C.3     1  UNL1        0.0923
      6 O         137.5596  138.5344  168.1613 O.2     1  UNL1       -0.2685
      7 C         138.5138  139.3813  167.3725 C.2     1  UNL1        0.2636
      8 N         139.5171  140.2408  168.0829 N.am    1  UNL1       -0.2995
      9 H         140.1434  140.7967  167.5652 H       1  UNL1        0.1498
     10 C         138.4648  139.3687  165.8734 C.2     1  UNL1        0.1341
     11 C         138.0322  140.5056  164.9957 C.2     1  UNL1        0.0249
     12 C         138.1398  140.0565  163.5686 C.2     1  UNL1        0.0155
     13 C         137.8477  140.7529  162.2725 C.2     1  UNL1        0.0009
     14 C         138.0549  140.0347  160.9721 C.2     1  UNL1       -0.0041
     15 C         138.5541  138.6202  160.9676 C.2     1  UNL1       -0.0198
     16 C         138.8461  137.9239  162.2637 C.3     1  UNL1        0.0717
     17 C         138.6390  138.6420  163.5642 C.2     1  UNL1        0.0635
     18 N         138.8398  138.2170  164.9886 N.2     1  UNL1       -0.2448
     19 C         142.5916  140.5995  169.8881 C.3     1  UNL1        0.1018
     20 N         142.6381  140.7364  168.3950 N.3     1  UNL1       -0.2677
     21 C         142.5427  142.0935  167.7630 C.3     1  UNL1        0.0939
     22 C         142.5892  142.2304  166.2700 C.3     1  UNL1        0.1081
     23 N         142.7312  141.0103  165.4090 N.pl3   1  UNL1       -0.3040
     24 C         142.8266  139.6533  166.0410 C.3     1  UNL1        0.1081
     25 C         142.7801  139.5164  167.5341 C.3     1  UNL1        0.0939
     26 C         142.7777  141.1472  163.9160 C.ar    1  UNL1        0.0594
     27 C         141.6391  140.6415  163.0806 C.ar    1  UNL1        0.0154
     28 C         141.6856  140.7784  161.5876 C.ar    1  UNL1        0.0022
     29 C         142.8708  141.4211  160.9300 C.ar    1  UNL1        0.0123
     30 C         144.0094  141.9268  161.7654 C.ar    1  UNL1        0.0694
     31 CL        145.1945  142.5695  161.1078 Cl      1  UNL1       -0.0813
     32 C         143.9628  141.7899  163.2584 C.ar    1  UNL1        0.0815
     33 CL        145.1015  142.2956  164.0938 Cl      1  UNL1       -0.0801
@<TRIPOS>BOND
     1     6     7    2
     2     7     8   am
     3     8     5    1
     4     5     4    1
     5     4     1    1
     6     1     2    1
     7     1    19    1
     8    19    20    1
     9    20    21    1
    10    21    22    1
    11    22    23    1
    12    23    26    1
    13    26    27   ar
    14    27    28   ar
    15    28    29   ar
    16    29    30   ar
    17    30    31    1
    18    30    32   ar
    19    32    33    1
    20    23    24    1
    21    24    25    1
    22     7    10    1
    23    10    11    2
    24    11    12    1
    25    12    13    2
    26    13    14    1
    27    14    15    2
    28    15    16    1
    29    16    17    1
    30    17    18    2
    31    25    20    1
    32    18    10    1
    33    32    26   ar
    34    17    12    1
    35     8     9    1
    36     2     3    1
@<TRIPOS>MOLECULE
*****
 33 36 0 0 0
SMALL
GASTEIGER

@<TRIPOS>ATOM
      1 C         140.1502  142.2559  170.4336 C.3     1  UNL1        0.1281
      2 O         140.8956  142.3638  171.7309 O.3     1  UNL1       -0.3830
      3 H         140.6040  141.6596  172.3308 H       1  UNL1        0.2104
      4 C         139.1353  141.1686  170.2400 C.3     1  UNL1        0.0519
      5 C         139.4906  139.9426  169.4520 C.3     1  UNL1        0.0923
      6 O         137.4169  138.4080  167.9207 O.2     1  UNL1       -0.2685
      7 C         138.4439  139.2185  167.1870 C.2     1  UNL1        0.2636
      8 N         139.4807  139.9858  167.9526 N.am    1  UNL1       -0.2995
      9 H         140.1548  140.5178  167.4711 H       1  UNL1        0.1498
     10 C         138.4341  139.2617  165.6877 C.2     1  UNL1        0.1341
     11 C         138.0607  140.4430  164.8420 C.2     1  UNL1        0.0249
     12 C         138.1918  140.0426  163.4024 C.2     1  UNL1        0.0155
     13 C         137.9561  140.7944  162.1261 C.2     1  UNL1        0.0009
     14 C         138.1748  140.1174  160.8056 C.2     1  UNL1       -0.0041
     15 C         138.6291  138.6886  160.7614 C.2     1  UNL1       -0.0198
     16 C         138.8648  137.9367  162.0378 C.3     1  UNL1        0.0717
     17 C         138.6462  138.6138  163.3583 C.2     1  UNL1        0.0635
     18 N         138.7959  138.1312  164.7706 N.2     1  UNL1       -0.2448
     19 C         140.4199  143.2353  169.3300 C.3     1  UNL1        0.1018
     20 N         141.0976  142.7797  168.0718 N.3     1  UNL1       -0.2677
     21 C         140.4269  142.9776  166.7447 C.3     1  UNL1        0.0939
     22 C         141.1046  142.5219  165.4865 C.3     1  UNL1        0.1081
     23 N         142.4530  141.8683  165.5554 N.pl3   1  UNL1       -0.3040
     24 C         143.1237  141.6704  166.8824 C.3     1  UNL1        0.1081
     25 C         142.4459  142.1261  168.1406 C.3     1  UNL1        0.0939
     26 C         143.1308  141.4127  164.2972 C.ar    1  UNL1        0.0594
     27 C         143.9874  142.3669  163.5189 C.ar    1  UNL1        0.0154
     28 C         144.6651  141.9112  162.2607 C.ar    1  UNL1        0.0022
     29 C         144.4862  140.5013  161.7808 C.ar    1  UNL1        0.0123
     30 C         143.6296  139.5472  162.5591 C.ar    1  UNL1        0.0694
     31 CL        143.4508  138.1372  162.0792 Cl      1  UNL1       -0.0813
     32 C         142.9519  140.0028  163.8173 C.ar    1  UNL1        0.0815
     33 CL        142.0953  139.0486  164.5956 Cl      1  UNL1       -0.0801
@<TRIPOS>BOND
     1     6     7    2
     2     7     8   am
     3     8     5    1
     4     5     4    1
     5     4     1    1
     6     1     2    1
     7     1    19    1
     8    19    20    1
     9    20    21    1
    10    21    22    1
    11    22    23    1
    12    23    26    1
    13    26    27   ar
    14    27    28   ar
    15    28    29   ar
    16    29    30   ar
    17    30    31    1
    18    30    32   ar
    19    32    33    1
    20    23    24    1
    21    24    25    1
    22     7    10    1
    23    10    11    2
    24    11    12    1
    25    12    13    2
    26    13    14    1
    27    14    15    2
    28    15    16    1
    29    16    17    1
    30    17    18    2
    31    25    20    1
    32    18    10    1
    33    32    26   ar
    34    17    12    1
    35     8     9    1
    36     2     3    1
@<TRIPOS>MOLECULE
*****
 33 36 0 0 0
SMALL
GASTEIGER

@<TRIPOS>ATOM
      1 C         141.3901  140.8667  170.8232 C.3     1  UNL1        0.1281
      2 O         140.6591  140.2732  171.9909 O.3     1  UNL1       -0.3830
      3 H         141.2019  139.5765  172.3919 H       1  UNL1        0.2104
      4 C         142.7504  140.3555  170.4515 C.3     1  UNL1        0.0519
      5 C         142.8889  139.2670  169.4287 C.3     1  UNL1        0.0923
      6 O         144.1632  137.6980  167.2120 O.2     1  UNL1       -0.2685
      7 C         143.1272  138.7358  166.8967 C.2     1  UNL1        0.2636
      8 N         142.4901  139.5204  168.0051 N.am    1  UNL1       -0.2995
      9 H         141.8101  140.2016  167.7982 H       1  UNL1        0.1498
     10 C         142.7284  138.9892  165.4731 C.2     1  UNL1        0.1341
     11 C         142.4396  137.9421  164.4386 C.2     1  UNL1        0.0249
     12 C         142.0810  138.6399  163.1602 C.2     1  UNL1        0.0155
     13 C         141.7020  138.1201  161.8051 C.2     1  UNL1        0.0009
     14 C         141.3902  139.0788  160.6944 C.2     1  UNL1       -0.0041
     15 C         141.4574  140.5572  160.9387 C.2     1  UNL1       -0.0198
     16 C         141.8364  141.0770  162.2938 C.3     1  UNL1        0.0717
     17 C         142.1482  140.1184  163.4045 C.2     1  UNL1        0.0635
     18 N         142.5483  140.3342  164.8339 N.2     1  UNL1       -0.2448
     19 C         140.7607  141.9713  170.0272 C.3     1  UNL1        0.1018
     20 N         140.2645  141.7053  168.6369 N.3     1  UNL1       -0.2677
     21 C         140.5209  142.7019  167.5455 C.3     1  UNL1        0.0939
     22 C         140.0247  142.4358  166.1552 C.3     1  UNL1        0.1081
     23 N         139.2722  141.1731  165.8562 N.pl3   1  UNL1       -0.3040
     24 C         139.0159  140.1765  166.9476 C.3     1  UNL1        0.1081
     25 C         139.5120  140.4426  168.3379 C.3     1  UNL1        0.0939
     26 C         138.7760  140.9070  164.4659 C.ar    1  UNL1        0.0594
     27 C         138.4225  142.0521  163.5637 C.ar    1  UNL1        0.0154
     28 C         137.9264  141.7860  162.1734 C.ar    1  UNL1        0.0022
     29 C         137.7837  140.3748  161.6852 C.ar    1  UNL1        0.0123
     30 C         138.1372  139.2298  162.5874 C.ar    1  UNL1        0.0694
     31 CL        137.9946  137.8186  162.0992 Cl      1  UNL1       -0.0813
     32 C         138.6334  139.4959  163.9777 C.ar    1  UNL1        0.0815
     33 CL        138.9869  138.3508  164.8798 Cl      1  UNL1       -0.0801
@<TRIPOS>BOND
     1     6     7    2
     2     7     8   am
     3     8     5    1
     4     5     4    1
     5     4     1    1
     6     1     2    1
     7     1    19    1
     8    19    20    1
     9    20    21    1
    10    21    22    1
    11    22    23    1
    12    23    26    1
    13    26    27   ar
    14    27    28   ar
    15    28    29   ar
    16    29    30   ar
    17    30    31    1
    18    30    32   ar
    19    32    33    1
    20    23    24    1
    21    24    25    1
    22     7    10    1
    23    10    11    2
    24    11    12    1
    25    12    13    2
    26    13    14    1
    27    14    15    2
    28    15    16    1
    29    16    17    1
    30    17    18    2
    31    25    20    1
    32    18    10    1
    33    32    26   ar
    34    17    12    1
    35     8     9    1
    36     2     3    1
@<TRIPOS>MOLECULE
*****
 33 36 0 0 0
SMALL
GASTEIGER

@<TRIPOS>ATOM
      1 C         141.5464  140.2424  170.7524 C.3     1  UNL1        0.1281
      2 O         142.1630  140.7587  172.0186 O.3     1  UNL1       -0.3830
      3 H         141.4840  141.2007  172.5520 H       1  UNL1        0.2104
      4 C         140.0848  140.4540  170.4893 C.3     1  UNL1        0.0519
      5 C         139.5191  140.1721  169.1289 C.3     1  UNL1        0.0923
      6 O         138.8891  139.3425  166.3156 O.2     1  UNL1       -0.2685
      7 C         139.4891  140.6909  166.5834 C.2     1  UNL1        0.2636
      8 N         139.8041  141.1057  167.9900 N.am    1  UNL1       -0.2995
      9 H         140.1980  141.9907  168.1657 H       1  UNL1        0.1498
     10 C         139.7742  141.6245  165.4444 C.2     1  UNL1        0.1341
     11 C         139.9431  143.1116  165.5445 C.2     1  UNL1        0.0249
     12 C         140.2136  143.6411  164.1674 C.2     1  UNL1        0.0155
     13 C         140.4614  145.0295  163.6567 C.2     1  UNL1        0.0009
     14 C         140.7073  145.2581  162.1947 C.2     1  UNL1       -0.0041
     15 C         140.7055  144.0983  161.2436 C.2     1  UNL1       -0.0198
     16 C         140.4578  142.7099  161.7543 C.3     1  UNL1        0.0717
     17 C         140.2119  142.4813  163.2162 C.2     1  UNL1        0.0635
     18 N         139.9402  141.2350  164.0055 N.2     1  UNL1       -0.2448
     19 C         142.3913  139.5145  169.7493 C.3     1  UNL1        0.1018
     20 N         142.7046  140.1527  168.4285 N.3     1  UNL1       -0.2677
     21 C         142.9257  141.6341  168.3450 C.3     1  UNL1        0.0939
     22 C         143.2390  142.2723  167.0243 C.3     1  UNL1        0.1081
     23 N         143.3313  141.4293  165.7869 N.pl3   1  UNL1       -0.3040
     24 C         143.1102  139.9481  165.8705 C.3     1  UNL1        0.1081
     25 C         142.7968  139.3098  167.1912 C.3     1  UNL1        0.0939
     26 C         143.6446  142.0676  164.4662 C.ar    1  UNL1        0.0594
     27 C         143.9026  143.5432  164.3887 C.ar    1  UNL1        0.0154
     28 C         144.2159  144.1815  163.0680 C.ar    1  UNL1        0.0022
     29 C         144.2713  143.3441  161.8246 C.ar    1  UNL1        0.0123
     30 C         144.0133  141.8685  161.9021 C.ar    1  UNL1        0.0694
     31 CL        144.0687  141.0311  160.6588 Cl      1  UNL1       -0.0813
     32 C         143.7000  141.2302  163.2229 C.ar    1  UNL1        0.0815
     33 CL        143.4420  139.7546  163.3004 Cl      1  UNL1       -0.0801
@<TRIPOS>BOND
     1     6     7    2
     2     7     8   am
     3     8     5    1
     4     5     4    1
     5     4     1    1
     6     1     2    1
     7     1    19    1
     8    19    20    1
     9    20    21    1
    10    21    22    1
    11    22    23    1
    12    23    26    1
    13    26    27   ar
    14    27    28   ar
    15    28    29   ar
    16    29    30   ar
    17    30    31    1
    18    30    32   ar
    19    32    33    1
    20    23    24    1
    21    24    25    1
    22     7    10    1
    23    10    11    2
    24    11    12    1
    25    12    13    2
    26    13    14    1
    27    14    15    2
    28    15    16    1
    29    16    17    1
    30    17    18    2
    31    25    20    1
    32    18    10    1
    33    32    26   ar
    34    17    12    1
    35     8     9    1
    36     2     3    1
@<TRIPOS>MOLECULE
*****
 33 36 0 0 0
SMALL
GASTEIGER

@<TRIPOS>ATOM
      1 C         144.3625  143.2989  161.8630 C.3     1  UNL1        0.1281
      2 O         144.1513  144.7045  162.3422 O.3     1  UNL1       -0.3830
      3 H         143.7327  145.2262  161.6397 H       1  UNL1        0.2104
      4 C         143.9381  142.9066  160.4788 C.3     1  UNL1        0.0519
      5 C         142.5315  142.4504  160.2266 C.3     1  UNL1        0.0923
      6 O         140.7228  143.4780  162.3882 O.2     1  UNL1       -0.2685
      7 C         140.9690  142.0045  162.2538 C.2     1  UNL1        0.2636
      8 N         141.8733  141.4907  161.1730 N.am    1  UNL1       -0.2995
      9 H         142.0348  140.5235  161.0848 H       1  UNL1        0.1498
     10 C         140.3107  141.0447  163.2002 C.2     1  UNL1        0.1341
     11 C         140.1854  139.5625  163.0073 C.2     1  UNL1        0.0249
     12 C         139.4595  139.0004  164.1936 C.2     1  UNL1        0.0155
     13 C         139.0511  137.6018  164.5501 C.2     1  UNL1        0.0009
     14 C         138.3194  137.3381  165.8327 C.2     1  UNL1       -0.0041
     15 C         137.9961  138.4730  166.7588 C.2     1  UNL1       -0.0198
     16 C         138.4045  139.8716  166.4022 C.3     1  UNL1        0.0717
     17 C         139.1362  140.1353  165.1196 C.2     1  UNL1        0.0635
     18 N         139.6623  141.3987  164.5057 N.2     1  UNL1       -0.2448
     19 C         144.9981  142.2855  162.7680 C.3     1  UNL1        0.1018
     20 N         144.3143  141.8834  164.0411 N.3     1  UNL1       -0.2677
     21 C         143.8255  140.4762  164.2178 C.3     1  UNL1        0.0939
     22 C         143.1417  140.0741  165.4909 C.3     1  UNL1        0.1081
     23 N         142.9467  141.0792  166.5872 N.pl3   1  UNL1       -0.3040
     24 C         143.4354  142.4862  166.4105 C.3     1  UNL1        0.1081
     25 C         144.1192  142.8883  165.1374 C.3     1  UNL1        0.0939
     26 C         142.2629  140.6770  167.8603 C.ar    1  UNL1        0.0594
     27 C         142.7461  139.4809  168.6258 C.ar    1  UNL1        0.0154
     28 C         142.0623  139.0788  169.8989 C.ar    1  UNL1        0.0022
     29 C         140.8952  139.8728  170.4065 C.ar    1  UNL1        0.0123
     30 C         140.4120  141.0689  169.6410 C.ar    1  UNL1        0.0694
     31 CL        139.2450  141.8628  170.1486 Cl      1  UNL1       -0.0813
     32 C         141.0958  141.4710  168.3679 C.ar    1  UNL1        0.0815
     33 CL        140.6126  142.6671  167.6025 Cl      1  UNL1       -0.0801
@<TRIPOS>BOND
     1     6     7    2
     2     7     8   am
     3     8     5    1
     4     5     4    1
     5     4     1    1
     6     1     2    1
     7     1    19    1
     8    19    20    1
     9    20    21    1
    10    21    22    1
    11    22    23    1
    12    23    26    1
    13    26    27   ar
    14    27    28   ar
    15    28    29   ar
    16    29    30   ar
    17    30    31    1
    18    30    32   ar
    19    32    33    1
    20    23    24    1
    21    24    25    1
    22     7    10    1
    23    10    11    2
    24    11    12    1
    25    12    13    2
    26    13    14    1
    27    14    15    2
    28    15    16    1
    29    16    17    1
    30    17    18    2
    31    25    20    1
    32    18    10    1
    33    32    26   ar
    34    17    12    1
    35     8     9    1
    36     2     3    1
@<TRIPOS>MOLECULE
*****
 33 36 0 0 0
SMALL
GASTEIGER

@<TRIPOS>ATOM
      1 C         140.1838  140.3226  169.7215 C.3     1  UNL1        0.1281
      2 O         139.8025  141.4377  170.6495 O.3     1  UNL1       -0.3830
      3 H         140.4037  141.4448  171.4107 H       1  UNL1        0.2104
      4 C         141.3452  139.4336  170.0547 C.3     1  UNL1        0.0519
      5 C         142.5734  139.4499  169.1936 C.3     1  UNL1        0.0923
      6 O         144.2283  137.6116  167.4961 O.2     1  UNL1       -0.2685
      7 C         143.2690  138.5675  166.8511 C.2     1  UNL1        0.2636
      8 N         142.4416  139.4867  167.6998 N.am    1  UNL1       -0.2995
      9 H         141.8119  140.1140  167.2765 H       1  UNL1        0.1498
     10 C         143.1372  138.6042  165.3573 C.2     1  UNL1        0.1341
     11 C         144.0501  139.3235  164.4091 C.2     1  UNL1        0.0249
     12 C         143.5465  139.0919  163.0153 C.2     1  UNL1        0.0155
     13 C         144.0444  139.5550  161.6783 C.2     1  UNL1        0.0009
     14 C         143.3182  139.1555  160.4281 C.2     1  UNL1       -0.0041
     15 C         142.0940  138.2931  160.5149 C.2     1  UNL1       -0.0198
     16 C         141.5961  137.8300  161.8519 C.3     1  UNL1        0.0717
     17 C         142.3223  138.2295  163.1021 C.2     1  UNL1        0.0635
     18 N         142.0694  137.9281  164.5496 N.2     1  UNL1       -0.2448
     19 C         139.4038  140.0964  168.4605 C.3     1  UNL1        0.1018
     20 N         139.7520  140.8584  167.2163 N.3     1  UNL1       -0.2677
     21 C         140.4745  142.1691  167.3171 C.3     1  UNL1        0.0939
     22 C         140.8227  142.9311  166.0729 C.3     1  UNL1        0.1081
     23 N         140.4485  142.3824  164.7279 N.pl3   1  UNL1       -0.3040
     24 C         139.7260  141.0718  164.6271 C.3     1  UNL1        0.1081
     25 C         139.3778  140.3098  165.8713 C.3     1  UNL1        0.0939
     26 C         140.7967  143.1445  163.4837 C.ar    1  UNL1        0.0594
     27 C         141.8907  142.6513  162.5836 C.ar    1  UNL1        0.0154
     28 C         142.2390  143.4133  161.3394 C.ar    1  UNL1        0.0022
     29 C         141.4932  144.6685  160.9953 C.ar    1  UNL1        0.0123
     30 C         140.3993  145.1617  161.8953 C.ar    1  UNL1        0.0694
     31 CL        139.6536  146.4169  161.5512 Cl      1  UNL1       -0.0813
     32 C         140.0511  144.3996  163.1395 C.ar    1  UNL1        0.0815
     33 CL        138.9571  144.8929  164.0396 Cl      1  UNL1       -0.0801
@<TRIPOS>BOND
     1     6     7    2
     2     7     8   am
     3     8     5    1
     4     5     4    1
     5     4     1    1
     6     1     2    1
     7     1    19    1
     8    19    20    1
     9    20    21    1
    10    21    22    1
    11    22    23    1
    12    23    26    1
    13    26    27   ar
    14    27    28   ar
    15    28    29   ar
    16    29    30   ar
    17    30    31    1
    18    30    32   ar
    19    32    33    1
    20    23    24    1
    21    24    25    1
    22     7    10    1
    23    10    11    2
    24    11    12    1
    25    12    13    2
    26    13    14    1
    27    14    15    2
    28    15    16    1
    29    16    17    1
    30    17    18    2
    31    25    20    1
    32    18    10    1
    33    32    26   ar
    34    17    12    1
    35     8     9    1
    36     2     3    1
