@<TRIPOS>MOLECULE
*****
 29 32 0 0 0
SMALL
GASTEIGER

@<TRIPOS>ATOM
      1 C         140.6746  141.4136  164.4157 C.2     1  UNL1        0.0020
      2 C         140.6589  141.8476  165.8515 C.2     1  UNL1        0.0130
      3 C         140.8048  140.8304  166.9441 C.3     1  UNL1        0.1542
      4 C         140.6433  142.2816  167.2872 C.3     1  UNL1        0.0617
      5 C         140.6276  142.7156  168.7229 C.3     1  UNL1        0.0761
      6 N         140.7735  141.6983  169.8156 N.3     1  UNL1       -0.2712
      7 C         140.7578  142.1324  171.2514 C.3     1  UNL1        0.0896
      8 C         140.9350  140.2471  169.4725 C.3     1  UNL1        0.0761
      9 C         140.9507  139.8131  168.0368 C.3     1  UNL1        0.0617
     10 O         140.9664  139.3791  166.6010 O.3     1  UNL1       -0.4785
     11 C         140.9820  138.9451  165.1653 C.ar    1  UNL1        0.1386
     12 C         141.1436  137.4937  164.8222 C.ar    1  UNL1        0.0369
     13 C         141.1592  137.0598  163.3864 C.ar    1  UNL1        0.0031
     14 C         141.0134  138.0770  162.2938 C.ar    1  UNL1        0.0002
     15 C         140.8518  139.5283  162.6368 C.ar    1  UNL1        0.0030
     16 C         140.8361  139.9623  164.0726 C.ar    1  UNL1        0.0338
     17 C         140.2369  144.4653  161.1377 C.ar    1  UNL1        0.0536
     18 C         139.0807  143.5801  161.4975 C.ar    1  UNL1        0.0045
     19 C         139.2266  142.5628  162.5902 C.ar    1  UNL1        0.0001
     20 C         140.5287  142.4308  163.3230 C.ar    1  UNL1       -0.0001
     21 C         141.6850  143.3161  162.9632 C.ar    1  UNL1        0.0001
     22 C         141.5391  144.3333  161.8706 C.ar    1  UNL1        0.0045
     23 N         140.5671  145.1670  158.6581 N.am    1  UNL1       -0.2761
     24 C         140.0910  145.4826  160.0450 C.2     1  UNL1        0.2490
     25 O         139.4691  146.8155  160.3394 O.2     1  UNL1       -0.2699
     26 C         139.6499  145.8462  156.3240 C.3     1  UNL1        0.0233
     27 C         140.4212  146.1842  157.5654 C.3     1  UNL1        0.0938
     28 C         141.1891  143.8341  158.3637 C.3     1  UNL1        0.0938
     29 C         142.6818  143.6998  158.3038 C.3     1  UNL1        0.0233
@<TRIPOS>BOND
     1    26    27    1
     2    27    23    1
     3    23    28    1
     4    28    29    1
     5    23    24   am
     6    24    25    2
     7    24    17    1
     8    17    18   ar
     9    18    19   ar
    10    19    20   ar
    11    20     1    1
    12     1     2    2
    13     2     3    1
    14     3     4    1
    15     4     5    1
    16     5     6    1
    17     6     7    1
    18     6     8    1
    19     8     9    1
    20     3    10    1
    21    10    11    1
    22    11    12   ar
    23    12    13   ar
    24    13    14   ar
    25    14    15   ar
    26    15    16   ar
    27    20    21   ar
    28    21    22   ar
    29    22    17   ar
    30    16     1    1
    31     9     3    1
    32    16    11   ar
@<TRIPOS>MOLECULE
*****
 29 32 0 0 0
SMALL
GASTEIGER

@<TRIPOS>ATOM
      1 C         142.1188  142.4989  162.1783 C.2     1  UNL1        0.0020
      2 C         142.9067  141.9164  161.0425 C.2     1  UNL1        0.0130
      3 C         142.8731  142.5706  159.6931 C.3     1  UNL1        0.1542
      4 C         143.6946  141.3340  159.9067 C.3     1  UNL1        0.0617
      5 C         144.4825  140.7516  158.7710 C.3     1  UNL1        0.0761
      6 N         144.4489  141.4058  157.4216 N.3     1  UNL1       -0.2712
      7 C         145.2368  140.8233  156.2858 C.3     1  UNL1        0.0896
      8 C         143.6273  142.6425  157.2080 C.3     1  UNL1        0.0761
      9 C         142.8394  143.2249  158.3437 C.3     1  UNL1        0.0617
     10 O         142.0514  143.8073  159.4795 O.3     1  UNL1       -0.4785
     11 C         141.2635  144.3897  160.6152 C.ar    1  UNL1        0.1386
     12 C         140.4419  145.6264  160.4016 C.ar    1  UNL1        0.0369
     13 C         139.6540  146.2088  161.5374 C.ar    1  UNL1        0.0031
     14 C         139.6877  145.5546  162.8868 C.ar    1  UNL1        0.0002
     15 C         140.5092  144.3180  163.1004 C.ar    1  UNL1        0.0030
     16 C         141.2972  143.7355  161.9646 C.ar    1  UNL1        0.0338
     17 C         142.2198  140.5362  166.2264 C.ar    1  UNL1        0.0536
     18 C         143.1659  141.6570  165.9125 C.ar    1  UNL1        0.0045
     19 C         143.1323  142.3112  164.5631 C.ar    1  UNL1        0.0001
     20 C         142.1525  141.8446  163.5276 C.ar    1  UNL1       -0.0001
     21 C         141.2062  140.7238  163.8415 C.ar    1  UNL1        0.0001
     22 C         141.2399  140.0695  165.1909 C.ar    1  UNL1        0.0045
     23 N         141.3250  140.3470  168.6582 N.am    1  UNL1       -0.2761
     24 C         142.2535  139.8819  167.5758 C.2     1  UNL1        0.2490
     25 O         143.2157  138.7625  167.8428 O.2     1  UNL1       -0.2699
     26 C         140.2173  139.8832  170.9621 C.3     1  UNL1        0.0233
     27 C         141.3587  139.6928  170.0076 C.3     1  UNL1        0.0938
     28 C         140.3629  141.4665  168.3912 C.3     1  UNL1        0.0938
     29 C         140.7038  142.8650  168.8126 C.3     1  UNL1        0.0233
@<TRIPOS>BOND
     1    26    27    1
     2    27    23    1
     3    23    28    1
     4    28    29    1
     5    23    24   am
     6    24    25    2
     7    24    17    1
     8    17    18   ar
     9    18    19   ar
    10    19    20   ar
    11    20     1    1
    12     1     2    2
    13     2     3    1
    14     3     4    1
    15     4     5    1
    16     5     6    1
    17     6     7    1
    18     6     8    1
    19     8     9    1
    20     3    10    1
    21    10    11    1
    22    11    12   ar
    23    12    13   ar
    24    13    14   ar
    25    14    15   ar
    26    15    16   ar
    27    20    21   ar
    28    21    22   ar
    29    22    17   ar
    30    16     1    1
    31     9     3    1
    32    16    11   ar
@<TRIPOS>MOLECULE
*****
 29 32 0 0 0
SMALL
GASTEIGER

@<TRIPOS>ATOM
      1 C         141.0235  141.2866  163.6392 C.2     1  UNL1        0.0020
      2 C         141.7280  141.7162  164.8919 C.2     1  UNL1        0.0130
      3 C         141.6863  140.8449  166.1122 C.3     1  UNL1        0.1542
      4 C         142.4325  142.1458  166.1446 C.3     1  UNL1        0.0617
      5 C         143.1369  142.5753  167.3972 C.3     1  UNL1        0.0761
      6 N         143.0953  141.7040  168.6175 N.3     1  UNL1       -0.2712
      7 C         143.7998  142.1336  169.8702 C.3     1  UNL1        0.0896
      8 C         142.3492  140.4032  168.5851 C.3     1  UNL1        0.0761
      9 C         141.6447  139.9736  167.3325 C.3     1  UNL1        0.0617
     10 O         140.9402  139.5440  166.0798 O.3     1  UNL1       -0.4785
     11 C         140.2357  139.1145  164.8272 C.ar    1  UNL1        0.1386
     12 C         139.4895  137.8136  164.7947 C.ar    1  UNL1        0.0369
     13 C         138.7851  137.3841  163.5421 C.ar    1  UNL1        0.0031
     14 C         138.8267  138.2554  162.3218 C.ar    1  UNL1        0.0002
     15 C         139.5728  139.5562  162.3542 C.ar    1  UNL1        0.0030
     16 C         140.2774  139.9858  163.6069 C.ar    1  UNL1        0.0338
     17 C         141.1484  143.9005  159.9784 C.ar    1  UNL1        0.0536
     18 C         142.1171  142.7644  160.1221 C.ar    1  UNL1        0.0045
     19 C         142.0755  141.8931  161.3424 C.ar    1  UNL1        0.0001
     20 C         141.0651  142.1579  162.4189 C.ar    1  UNL1       -0.0001
     21 C         140.0963  143.2941  162.2752 C.ar    1  UNL1        0.0001
     22 C         140.1380  144.1654  161.0549 C.ar    1  UNL1        0.0045
     23 N         140.2479  144.5139  157.6198 N.am    1  UNL1       -0.2761
     24 C         141.1901  144.7718  158.7581 C.2     1  UNL1        0.2490
     25 O         142.1740  145.9011  158.6761 O.2     1  UNL1       -0.2699
     26 C         139.5976  146.7161  156.4043 C.3     1  UNL1        0.0233
     27 C         140.2895  145.3852  156.3995 C.3     1  UNL1        0.0938
     28 C         139.2640  143.3845  157.7018 C.3     1  UNL1        0.0938
     29 C         139.6474  142.0189  157.2140 C.3     1  UNL1        0.0233
@<TRIPOS>BOND
     1    26    27    1
     2    27    23    1
     3    23    28    1
     4    28    29    1
     5    23    24   am
     6    24    25    2
     7    24    17    1
     8    17    18   ar
     9    18    19   ar
    10    19    20   ar
    11    20     1    1
    12     1     2    2
    13     2     3    1
    14     3     4    1
    15     4     5    1
    16     5     6    1
    17     6     7    1
    18     6     8    1
    19     8     9    1
    20     3    10    1
    21    10    11    1
    22    11    12   ar
    23    12    13   ar
    24    13    14   ar
    25    14    15   ar
    26    15    16   ar
    27    20    21   ar
    28    21    22   ar
    29    22    17   ar
    30    16     1    1
    31     9     3    1
    32    16    11   ar
@<TRIPOS>MOLECULE
*****
 29 32 0 0 0
SMALL
GASTEIGER

@<TRIPOS>ATOM
      1 C         142.2394  139.6081  162.4122 C.2     1  UNL1        0.0020
      2 C         141.0670  139.1384  163.2215 C.2     1  UNL1        0.0130
      3 C         140.9014  139.5994  164.6393 C.3     1  UNL1        0.1542
      4 C         139.8946  138.6688  164.0308 C.3     1  UNL1        0.0617
      5 C         138.7223  138.1992  164.8401 C.3     1  UNL1        0.0761
      6 N         138.5567  138.6602  166.2579 N.3     1  UNL1       -0.2712
      7 C         137.3843  138.1906  167.0672 C.3     1  UNL1        0.0896
      8 C         139.5636  139.5908  166.8663 C.3     1  UNL1        0.0761
      9 C         140.7359  140.0604  166.0570 C.3     1  UNL1        0.0617
     10 O         141.9083  140.5301  165.2477 O.3     1  UNL1       -0.4785
     11 C         143.0807  140.9997  164.4384 C.ar    1  UNL1        0.1386
     12 C         144.0876  141.9303  165.0469 C.ar    1  UNL1        0.0369
     13 C         145.2599  142.3999  164.2376 C.ar    1  UNL1        0.0031
     14 C         145.4255  141.9389  162.8198 C.ar    1  UNL1        0.0002
     15 C         144.4187  141.0083  162.2113 C.ar    1  UNL1        0.0030
     16 C         143.2462  140.5387  163.0206 C.ar    1  UNL1        0.0338
     17 C         142.7360  138.2251  158.1589 C.ar    1  UNL1        0.0536
     18 C         142.9531  137.2643  159.2901 C.ar    1  UNL1        0.0045
     19 C         142.7876  137.7253  160.7079 C.ar    1  UNL1        0.0001
     20 C         142.4050  139.1471  160.9944 C.ar    1  UNL1       -0.0001
     21 C         142.1879  140.1079  159.8631 C.ar    1  UNL1        0.0001
     22 C         142.3534  139.6469  158.4454 C.ar    1  UNL1        0.0045
     23 N         141.7182  137.2486  155.9770 N.am    1  UNL1       -0.2761
     24 C         142.9016  137.7641  156.7411 C.2     1  UNL1        0.2490
     25 O         144.2506  137.8186  156.0874 O.2     1  UNL1       -0.2699
     26 C         142.0818  135.3306  154.2626 C.3     1  UNL1        0.0233
     27 C         141.8837  136.7876  154.5592 C.3     1  UNL1        0.0938
     28 C         140.3691  137.1941  156.6307 C.3     1  UNL1        0.0938
     29 C         139.1270  137.2193  155.7904 C.3     1  UNL1        0.0233
@<TRIPOS>BOND
     1    26    27    1
     2    27    23    1
     3    23    28    1
     4    28    29    1
     5    23    24   am
     6    24    25    2
     7    24    17    1
     8    17    18   ar
     9    18    19   ar
    10    19    20   ar
    11    20     1    1
    12     1     2    2
    13     2     3    1
    14     3     4    1
    15     4     5    1
    16     5     6    1
    17     6     7    1
    18     6     8    1
    19     8     9    1
    20     3    10    1
    21    10    11    1
    22    11    12   ar
    23    12    13   ar
    24    13    14   ar
    25    14    15   ar
    26    15    16   ar
    27    20    21   ar
    28    21    22   ar
    29    22    17   ar
    30    16     1    1
    31     9     3    1
    32    16    11   ar
@<TRIPOS>MOLECULE
*****
 29 32 0 0 0
SMALL
GASTEIGER

@<TRIPOS>ATOM
      1 C         142.0691  140.4253  163.5327 C.2     1  UNL1        0.0020
      2 C         140.8991  139.7219  164.1545 C.2     1  UNL1        0.0130
      3 C         140.5325  139.9952  165.5831 C.3     1  UNL1        0.1542
      4 C         139.7292  139.0186  164.7763 C.3     1  UNL1        0.0617
      5 C         138.5593  138.3153  165.3980 C.3     1  UNL1        0.0761
      6 N         138.1927  138.5886  166.8266 N.3     1  UNL1       -0.2712
      7 C         137.0227  137.8852  167.4484 C.3     1  UNL1        0.0896
      8 C         138.9960  139.5651  167.6335 C.3     1  UNL1        0.0761
      9 C         140.1659  140.2685  167.0117 C.3     1  UNL1        0.0617
     10 O         141.3359  140.9718  166.3899 O.3     1  UNL1       -0.4785
     11 C         142.5057  141.6751  165.7682 C.ar    1  UNL1        0.1386
     12 C         143.3091  142.6518  166.5750 C.ar    1  UNL1        0.0369
     13 C         144.4790  143.3551  165.9532 C.ar    1  UNL1        0.0031
     14 C         144.8456  143.0818  164.5246 C.ar    1  UNL1        0.0002
     15 C         144.0424  142.1052  163.7178 C.ar    1  UNL1        0.0030
     16 C         142.8724  141.4019  164.3395 C.ar    1  UNL1        0.0338
     17 C         143.1690  139.6055  159.2469 C.ar    1  UNL1        0.0536
     18 C         143.7962  138.8039  160.3487 C.ar    1  UNL1        0.0045
     19 C         143.4296  139.0772  161.7773 C.ar    1  UNL1        0.0001
     20 C         142.4357  140.1520  162.1041 C.ar    1  UNL1       -0.0001
     21 C         141.8084  140.9537  161.0023 C.ar    1  UNL1        0.0001
     22 C         142.1751  140.6805  159.5737 C.ar    1  UNL1        0.0045
     23 N         142.7486  138.3361  157.0194 N.am    1  UNL1       -0.2761
     24 C         143.5356  139.3323  157.8183 C.2     1  UNL1        0.2490
     25 O         144.6893  140.0552  157.1886 O.2     1  UNL1       -0.2699
     26 C         144.1962  137.0736  155.2699 C.3     1  UNL1        0.0233
     27 C         143.1152  138.0629  155.5908 C.3     1  UNL1        0.0938
     28 C         141.5949  137.6132  157.6490 C.3     1  UNL1        0.0938
     29 C         140.1973  137.8681  157.1676 C.3     1  UNL1        0.0233
@<TRIPOS>BOND
     1    26    27    1
     2    27    23    1
     3    23    28    1
     4    28    29    1
     5    23    24   am
     6    24    25    2
     7    24    17    1
     8    17    18   ar
     9    18    19   ar
    10    19    20   ar
    11    20     1    1
    12     1     2    2
    13     2     3    1
    14     3     4    1
    15     4     5    1
    16     5     6    1
    17     6     7    1
    18     6     8    1
    19     8     9    1
    20     3    10    1
    21    10    11    1
    22    11    12   ar
    23    12    13   ar
    24    13    14   ar
    25    14    15   ar
    26    15    16   ar
    27    20    21   ar
    28    21    22   ar
    29    22    17   ar
    30    16     1    1
    31     9     3    1
    32    16    11   ar
@<TRIPOS>MOLECULE
*****
 29 32 0 0 0
SMALL
GASTEIGER

@<TRIPOS>ATOM
      1 C         141.5881  141.9068  162.4308 C.2     1  UNL1        0.0020
      2 C         141.9732  140.8682  161.4193 C.2     1  UNL1        0.0130
      3 C         141.8205  141.1547  159.9548 C.3     1  UNL1        0.1542
      4 C         142.3582  139.8297  160.4077 C.3     1  UNL1        0.0617
      5 C         142.7432  138.7912  159.3962 C.3     1  UNL1        0.0761
      6 N         142.5905  139.0777  157.9318 N.3     1  UNL1       -0.2712
      7 C         142.9756  138.0391  156.9202 C.3     1  UNL1        0.0896
      8 C         142.0528  140.4027  157.4788 C.3     1  UNL1        0.0761
      9 C         141.6678  141.4412  158.4904 C.3     1  UNL1        0.0617
     10 O         141.2827  142.4798  159.5019 O.3     1  UNL1       -0.4785
     11 C         140.8977  143.5183  160.5134 C.ar    1  UNL1        0.1386
     12 C         140.3600  144.8434  160.0605 C.ar    1  UNL1        0.0369
     13 C         139.9749  145.8819  161.0721 C.ar    1  UNL1        0.0031
     14 C         140.1276  145.5954  162.5365 C.ar    1  UNL1        0.0002
     15 C         140.6654  144.2704  162.9894 C.ar    1  UNL1        0.0030
     16 C         141.0504  143.2318  161.9779 C.ar    1  UNL1        0.0338
     17 C         142.0463  141.0473  166.8241 C.ar    1  UNL1        0.0536
     18 C         140.8354  140.5578  166.0864 C.ar    1  UNL1        0.0045
     19 C         140.6827  140.8443  164.6220 C.ar    1  UNL1        0.0001
     20 C         141.7409  141.6203  163.8953 C.ar    1  UNL1       -0.0001
     21 C         142.9518  142.1098  164.6330 C.ar    1  UNL1        0.0001
     22 C         143.1045  141.8233  166.0974 C.ar    1  UNL1        0.0045
     23 N         141.5792  141.6779  169.3008 N.am    1  UNL1       -0.2761
     24 C         142.1990  140.7608  168.2886 C.2     1  UNL1        0.2490
     25 O         142.9715  139.5571  168.7408 O.2     1  UNL1       -0.2699
     26 C         140.7360  140.5154  171.4660 C.3     1  UNL1        0.0233
     27 C         141.7319  141.3914  170.7653 C.3     1  UNL1        0.0938
     28 C         140.8067  142.8817  168.8487 C.3     1  UNL1        0.0938
     29 C         140.3501  143.8998  169.8511 C.3     1  UNL1        0.0233
@<TRIPOS>BOND
     1    26    27    1
     2    27    23    1
     3    23    28    1
     4    28    29    1
     5    23    24   am
     6    24    25    2
     7    24    17    1
     8    17    18   ar
     9    18    19   ar
    10    19    20   ar
    11    20     1    1
    12     1     2    2
    13     2     3    1
    14     3     4    1
    15     4     5    1
    16     5     6    1
    17     6     7    1
    18     6     8    1
    19     8     9    1
    20     3    10    1
    21    10    11    1
    22    11    12   ar
    23    12    13   ar
    24    13    14   ar
    25    14    15   ar
    26    15    16   ar
    27    20    21   ar
    28    21    22   ar
    29    22    17   ar
    30    16     1    1
    31     9     3    1
    32    16    11   ar
@<TRIPOS>MOLECULE
*****
 29 32 0 0 0
SMALL
GASTEIGER

@<TRIPOS>ATOM
      1 C         140.9473  142.1443  163.1774 C.2     1  UNL1        0.0020
      2 C         139.9692  141.2330  163.8577 C.2     1  UNL1        0.0130
      3 C         140.1948  140.8195  165.2818 C.3     1  UNL1        0.1542
      4 C         138.9911  140.3217  164.5380 C.3     1  UNL1        0.0617
      5 C         138.0130  139.4104  165.2183 C.3     1  UNL1        0.0761
      6 N         138.2386  138.9969  166.6424 N.3     1  UNL1       -0.2712
      7 C         137.2604  138.0856  167.3227 C.3     1  UNL1        0.0896
      8 C         139.4423  139.4947  167.3862 C.3     1  UNL1        0.0761
      9 C         140.4204  140.4060  166.7059 C.3     1  UNL1        0.0617
     10 O         141.3985  141.3173  166.0256 O.3     1  UNL1       -0.4785
     11 C         142.3766  142.2286  165.3453 C.ar    1  UNL1        0.1386
     12 C         143.5804  142.7264  166.0892 C.ar    1  UNL1        0.0369
     13 C         144.5585  143.6377  165.4088 C.ar    1  UNL1        0.0031
     14 C         144.3329  144.0512  163.9847 C.ar    1  UNL1        0.0002
     15 C         143.1292  143.5534  163.2409 C.ar    1  UNL1        0.0030
     16 C         142.1510  142.6421  163.9212 C.ar    1  UNL1        0.0338
     17 C         140.2706  143.3848  158.9050 C.ar    1  UNL1        0.0536
     18 C         140.9626  142.0892  159.2092 C.ar    1  UNL1        0.0045
     19 C         141.1881  141.6757  160.6333 C.ar    1  UNL1        0.0001
     20 C         140.7218  142.5578  161.7533 C.ar    1  UNL1       -0.0001
     21 C         140.0297  143.8535  161.4491 C.ar    1  UNL1        0.0001
     22 C         139.8041  144.2670  160.0250 C.ar    1  UNL1        0.0045
     23 N         138.7952  143.3768  156.7665 N.am    1  UNL1       -0.2761
     24 C         140.0450  143.7983  157.4809 C.2     1  UNL1        0.2490
     25 O         141.0692  144.6333  156.7711 O.2     1  UNL1       -0.2699
     26 C         137.6645  144.9454  155.0312 C.3     1  UNL1        0.0233
     27 C         138.5696  143.7903  155.3424 C.3     1  UNL1        0.0938
     28 C         137.7709  142.5418  157.4763 C.3     1  UNL1        0.0938
     29 C         137.7980  141.0480  157.3430 C.3     1  UNL1        0.0233
@<TRIPOS>BOND
     1    26    27    1
     2    27    23    1
     3    23    28    1
     4    28    29    1
     5    23    24   am
     6    24    25    2
     7    24    17    1
     8    17    18   ar
     9    18    19   ar
    10    19    20   ar
    11    20     1    1
    12     1     2    2
    13     2     3    1
    14     3     4    1
    15     4     5    1
    16     5     6    1
    17     6     7    1
    18     6     8    1
    19     8     9    1
    20     3    10    1
    21    10    11    1
    22    11    12   ar
    23    12    13   ar
    24    13    14   ar
    25    14    15   ar
    26    15    16   ar
    27    20    21   ar
    28    21    22   ar
    29    22    17   ar
    30    16     1    1
    31     9     3    1
    32    16    11   ar
@<TRIPOS>MOLECULE
*****
 29 32 0 0 0
SMALL
GASTEIGER

@<TRIPOS>ATOM
      1 C         141.9137  142.1340  164.7725 C.2     1  UNL1        0.0020
      2 C         141.4176  142.3664  166.1690 C.2     1  UNL1        0.0130
      3 C         141.8754  141.4754  167.2855 C.3     1  UNL1        0.1542
      4 C         140.9215  142.5987  167.5653 C.3     1  UNL1        0.0617
      5 C         140.4254  142.8310  168.9617 C.3     1  UNL1        0.0761
      6 N         140.8832  141.9400  170.0782 N.3     1  UNL1       -0.2712
      7 C         140.3871  142.1724  171.4747 C.3     1  UNL1        0.0896
      8 C         141.8371  140.8168  169.7984 C.3     1  UNL1        0.0761
      9 C         142.3331  140.5844  168.4020 C.3     1  UNL1        0.0617
     10 O         142.8293  140.3521  167.0056 O.3     1  UNL1       -0.4785
     11 C         143.3253  140.1197  165.6092 C.ar    1  UNL1        0.1386
     12 C         144.2792  138.9964  165.3293 C.ar    1  UNL1        0.0369
     13 C         144.7753  138.7641  163.9329 C.ar    1  UNL1        0.0031
     14 C         144.3175  139.6550  162.8164 C.ar    1  UNL1        0.0002
     15 C         143.3636  140.7783  163.0962 C.ar    1  UNL1        0.0030
     16 C         142.8675  141.0107  164.4927 C.ar    1  UNL1        0.0338
     17 C         140.5403  144.8068  161.4229 C.ar    1  UNL1        0.0536
     18 C         141.7945  145.1344  162.1777 C.ar    1  UNL1        0.0045
     19 C         142.2523  144.2434  163.2942 C.ar    1  UNL1        0.0001
     20 C         141.4559  143.0249  163.6560 C.ar    1  UNL1       -0.0001
     21 C         140.2016  142.6973  162.9013 C.ar    1  UNL1        0.0001
     22 C         139.7438  143.5883  161.7847 C.ar    1  UNL1        0.0045
     23 N         140.4682  145.3850  158.8911 N.am    1  UNL1       -0.2761
     24 C         140.0825  145.6978  160.3064 C.2     1  UNL1        0.2490
     25 O         139.2389  146.9016  160.6053 O.2     1  UNL1       -0.2699
     26 C         140.6654  146.1876  156.4279 C.3     1  UNL1        0.0233
     27 C         140.0105  146.2759  157.7745 C.3     1  UNL1        0.0938
     28 C         141.3118  144.1811  158.5921 C.3     1  UNL1        0.0938
     29 C         140.6604  142.8843  158.2128 C.3     1  UNL1        0.0233
@<TRIPOS>BOND
     1    26    27    1
     2    27    23    1
     3    23    28    1
     4    28    29    1
     5    23    24   am
     6    24    25    2
     7    24    17    1
     8    17    18   ar
     9    18    19   ar
    10    19    20   ar
    11    20     1    1
    12     1     2    2
    13     2     3    1
    14     3     4    1
    15     4     5    1
    16     5     6    1
    17     6     7    1
    18     6     8    1
    19     8     9    1
    20     3    10    1
    21    10    11    1
    22    11    12   ar
    23    12    13   ar
    24    13    14   ar
    25    14    15   ar
    26    15    16   ar
    27    20    21   ar
    28    21    22   ar
    29    22    17   ar
    30    16     1    1
    31     9     3    1
    32    16    11   ar
@<TRIPOS>MOLECULE
*****
 29 32 0 0 0
SMALL
GASTEIGER

@<TRIPOS>ATOM
      1 C         141.0222  141.1111  164.1303 C.2     1  UNL1        0.0020
      2 C         141.5728  140.6242  165.4379 C.2     1  UNL1        0.0130
      3 C         141.2618  141.3646  166.7049 C.3     1  UNL1        0.1542
      4 C         142.1234  140.1374  166.7455 C.3     1  UNL1        0.0617
      5 C         142.6740  139.6506  168.0531 C.3     1  UNL1        0.0761
      6 N         142.3630  140.3910  169.3200 N.3     1  UNL1       -0.2712
      7 C         142.9136  139.9041  170.6277 C.3     1  UNL1        0.0896
      8 C         141.5014  141.6182  169.2794 C.3     1  UNL1        0.0761
      9 C         140.9509  142.1050  167.9718 C.3     1  UNL1        0.0617
     10 O         140.4002  142.5918  166.6641 O.3     1  UNL1       -0.4785
     11 C         139.8497  143.0786  165.3566 C.ar    1  UNL1        0.1386
     12 C         138.9880  144.3059  165.3158 C.ar    1  UNL1        0.0369
     13 C         138.4375  144.7927  164.0083 C.ar    1  UNL1        0.0031
     14 C         138.7485  144.0523  162.7413 C.ar    1  UNL1        0.0002
     15 C         139.6100  142.8251  162.7820 C.ar    1  UNL1        0.0030
     16 C         140.1607  142.3383  164.0896 C.ar    1  UNL1        0.0338
     17 C         141.9552  138.8900  160.3295 C.ar    1  UNL1        0.0536
     18 C         140.7802  138.4817  161.1676 C.ar    1  UNL1        0.0045
     19 C         140.4692  139.2220  162.4345 C.ar    1  UNL1        0.0001
     20 C         141.3332  140.3707  162.8633 C.ar    1  UNL1       -0.0001
     21 C         142.5083  140.7791  162.0252 C.ar    1  UNL1        0.0001
     22 C         142.8193  140.0387  160.7582 C.ar    1  UNL1        0.0045
     23 N         141.6460  138.5849  157.7680 N.am    1  UNL1       -0.2761
     24 C         142.2662  138.1496  159.0625 C.2     1  UNL1        0.2490
     25 O         143.1974  136.9739  159.0902 O.2     1  UNL1       -0.2699
     26 C         141.1667  136.6240  156.1323 C.3     1  UNL1        0.0233
     27 C         141.9570  137.8445  156.5010 C.3     1  UNL1        0.0938
     28 C         140.7148  139.7605  157.7403 C.3     1  UNL1        0.0938
     29 C         139.2370  139.5503  157.8871 C.3     1  UNL1        0.0233
@<TRIPOS>BOND
     1    26    27    1
     2    27    23    1
     3    23    28    1
     4    28    29    1
     5    23    24   am
     6    24    25    2
     7    24    17    1
     8    17    18   ar
     9    18    19   ar
    10    19    20   ar
    11    20     1    1
    12     1     2    2
    13     2     3    1
    14     3     4    1
    15     4     5    1
    16     5     6    1
    17     6     7    1
    18     6     8    1
    19     8     9    1
    20     3    10    1
    21    10    11    1
    22    11    12   ar
    23    12    13   ar
    24    13    14   ar
    25    14    15   ar
    26    15    16   ar
    27    20    21   ar
    28    21    22   ar
    29    22    17   ar
    30    16     1    1
    31     9     3    1
    32    16    11   ar
