@<TRIPOS>MOLECULE
*****
 33 37 0 0 0
SMALL
GASTEIGER

@<TRIPOS>ATOM
      1 C         138.7711  143.4199  163.7198 C.2     1  UNL1        0.2685
      2 O         137.6251  144.3732  163.8870 O.2     1  UNL1       -0.2682
      3 N         139.7630  143.6261  162.6135 N.am    1  UNL1       -0.2746
      4 C         139.6088  144.7856  161.6745 C.3     1  UNL1        0.0975
      5 C         140.6007  144.9918  160.5683 C.3     1  UNL1        0.0651
      6 C         141.7467  144.0385  160.4011 C.3     1  UNL1        0.1693
      7 C         141.9008  142.8790  161.3402 C.3     1  UNL1        0.0651
      8 C         140.9090  142.6728  162.4463 C.3     1  UNL1        0.0975
      9 C         138.1103  138.7364  166.0668 C.3     1  UNL1        0.1537
     10 N         138.6215  140.1076  165.7376 N.ar    1  UNL1       -0.2487
     11 N         138.1406  140.9827  164.6182 N.ar    1  UNL1       -0.1646
     12 C         138.9253  142.2604  164.6588 C.ar    1  UNL1        0.1557
     13 C         139.8911  142.1751  165.8033 C.ar    1  UNL1        0.0442
     14 C         139.7034  140.8446  166.4701 C.ar    1  UNL1        0.0796
     15 C         140.4640  140.3397  167.6603 C.ar    1  UNL1        0.0173
     16 C         139.8282  140.3558  169.0186 C.ar    1  UNL1        0.0015
     17 C         140.5888  139.8509  170.2088 C.ar    1  UNL1        0.0000
     18 C         141.9852  139.3300  170.0406 C.ar    1  UNL1        0.0000
     19 C         142.6212  139.3140  168.6822 C.ar    1  UNL1        0.0000
     20 C         141.8606  139.8188  167.4920 C.ar    1  UNL1        0.0015
     21 O         142.7385  144.2447  159.2949 O.3     1  UNL1       -0.4791
     22 C         143.1110  143.1011  158.3986 C.ar    1  UNL1        0.1384
     23 C         144.4427  142.4286  158.5549 C.ar    1  UNL1        0.0366
     24 C         144.8151  141.2849  157.6586 C.ar    1  UNL1        0.0002
     25 C         143.8559  140.8137  156.6061 C.ar    1  UNL1       -0.0059
     26 C         142.5241  141.4861  156.4499 C.ar    1  UNL1        0.0002
     27 C         142.1517  142.6298  157.3461 C.ar    1  UNL1        0.0366
     28 C         144.2283  139.6700  155.7099 C.3     1  UNL1        0.0991
     29 N         143.8390  138.2695  156.0800 N.3     1  UNL1       -0.2690
     30 C         144.3257  137.0148  155.4174 C.3     1  UNL1        0.0724
     31 C         143.6821  135.8476  156.1057 C.3     1  UNL1        0.0188
     32 C         142.7977  136.3810  157.1935 C.3     1  UNL1        0.0188
     33 C         142.8947  137.8777  157.1776 C.3     1  UNL1        0.0724
@<TRIPOS>BOND
     1     9    10    1
     2    10    11   ar
     3    11    12   ar
     4    12     1    1
     5     1     2    2
     6     1     3   am
     7     3     4    1
     8     4     5    1
     9     5     6    1
    10     6    21    1
    11    21    22    1
    12    22    23   ar
    13    23    24   ar
    14    24    25   ar
    15    25    28    1
    16    28    29    1
    17    29    30    1
    18    30    31    1
    19    31    32    1
    20    32    33    1
    21    25    26   ar
    22    26    27   ar
    23     6     7    1
    24     7     8    1
    25    12    13   ar
    26    13    14   ar
    27    14    15    1
    28    15    16   ar
    29    16    17   ar
    30    17    18   ar
    31    18    19   ar
    32    19    20   ar
    33    14    10   ar
    34    20    15   ar
    35     8     3    1
    36    27    22   ar
    37    33    29    1
@<TRIPOS>MOLECULE
*****
 33 37 0 0 0
SMALL
GASTEIGER

@<TRIPOS>ATOM
      1 C         142.8633  138.7479  157.6502 C.2     1  UNL1        0.2685
      2 O         144.1718  139.4764  157.7336 O.2     1  UNL1       -0.2682
      3 N         141.7185  139.1595  158.5278 N.am    1  UNL1       -0.2746
      4 C         141.8822  140.2995  159.4887 C.3     1  UNL1        0.0975
      5 C         140.7375  140.7111  160.3662 C.3     1  UNL1        0.0651
      6 C         139.4289  139.9825  160.2828 C.3     1  UNL1        0.1693
      7 C         139.2651  138.8425  159.3219 C.3     1  UNL1        0.0651
      8 C         140.4099  138.4310  158.4443 C.3     1  UNL1        0.0975
      9 C         141.9571  135.9870  153.2415 C.3     1  UNL1        0.1537
     10 N         142.2830  136.3388  154.6628 N.ar    1  UNL1       -0.2487
     11 N         142.3371  137.7230  155.2382 N.ar    1  UNL1       -0.1646
     12 C         142.6995  137.6079  156.6892 C.ar    1  UNL1        0.1557
     13 C         142.8693  136.1526  157.0105 C.ar    1  UNL1        0.0442
     14 C         142.6119  135.3682  155.7581 C.ar    1  UNL1        0.0796
     15 C         142.6727  133.8754  155.6245 C.ar    1  UNL1        0.0173
     16 C         143.9751  133.1574  155.8199 C.ar    1  UNL1        0.0015
     17 C         144.0359  131.6646  155.6863 C.ar    1  UNL1        0.0000
     18 C         142.7944  130.8899  155.3573 C.ar    1  UNL1        0.0000
     19 C         141.4920  131.6079  155.1619 C.ar    1  UNL1        0.0000
     20 C         141.4312  133.1006  155.2955 C.ar    1  UNL1        0.0015
     21 O         138.2841  140.3941  161.1604 O.3     1  UNL1       -0.4791
     22 C         138.3234  140.1013  162.6310 C.ar    1  UNL1        0.1384
     23 C         138.6383  138.7157  163.1117 C.ar    1  UNL1        0.0366
     24 C         138.6776  138.4229  164.5823 C.ar    1  UNL1        0.0002
     25 C         138.4021  139.5156  165.5722 C.ar    1  UNL1       -0.0059
     26 C         138.0872  140.9012  165.0916 C.ar    1  UNL1        0.0002
     27 C         138.0479  141.1941  163.6210 C.ar    1  UNL1        0.0366
     28 C         138.4414  139.2228  167.0428 C.3     1  UNL1        0.0991
     29 N         139.5360  139.7966  167.8928 N.3     1  UNL1       -0.2690
     30 C         139.3919  140.2879  169.3028 C.3     1  UNL1        0.0724
     31 C         140.7338  140.7748  169.7634 C.3     1  UNL1        0.0188
     32 C         141.7073  140.5844  168.6382 C.3     1  UNL1        0.0188
     33 C         140.9670  139.9798  167.4822 C.3     1  UNL1        0.0724
@<TRIPOS>BOND
     1     9    10    1
     2    10    11   ar
     3    11    12   ar
     4    12     1    1
     5     1     2    2
     6     1     3   am
     7     3     4    1
     8     4     5    1
     9     5     6    1
    10     6    21    1
    11    21    22    1
    12    22    23   ar
    13    23    24   ar
    14    24    25   ar
    15    25    28    1
    16    28    29    1
    17    29    30    1
    18    30    31    1
    19    31    32    1
    20    32    33    1
    21    25    26   ar
    22    26    27   ar
    23     6     7    1
    24     7     8    1
    25    12    13   ar
    26    13    14   ar
    27    14    15    1
    28    15    16   ar
    29    16    17   ar
    30    17    18   ar
    31    18    19   ar
    32    19    20   ar
    33    14    10   ar
    34    20    15   ar
    35     8     3    1
    36    27    22   ar
    37    33    29    1
@<TRIPOS>MOLECULE
*****
 33 37 0 0 0
SMALL
GASTEIGER

@<TRIPOS>ATOM
      1 C         144.0141  141.2356  161.6920 C.2     1  UNL1        0.2685
      2 O         144.8049  142.4904  161.9162 O.2     1  UNL1       -0.2682
      3 N         143.7802  140.7357  160.2972 N.am    1  UNL1       -0.2746
      4 C         144.3372  141.4904  159.1267 C.3     1  UNL1        0.0975
      5 C         144.1033  140.9904  157.7320 C.3     1  UNL1        0.0651
      6 C         143.3125  139.7357  157.5078 C.3     1  UNL1        0.1693
      7 C         142.7555  138.9809  158.6783 C.3     1  UNL1        0.0651
      8 C         142.9894  139.4809  160.0730 C.3     1  UNL1        0.0975
      9 C         143.6621  138.3039  166.0694 C.3     1  UNL1        0.1537
     10 N         143.2953  139.1334  164.8746 N.ar    1  UNL1       -0.2487
     11 N         144.2547  139.7361  163.8916 N.ar    1  UNL1       -0.1646
     12 C         143.4571  140.4809  162.8625 C.ar    1  UNL1        0.1557
     13 C         142.0047  140.3385  163.2095 C.ar    1  UNL1        0.0442
     14 C         141.9047  139.5057  164.4530 C.ar    1  UNL1        0.0796
     15 C         140.6368  139.1139  165.1521 C.ar    1  UNL1        0.0173
     16 C         140.1456  139.9165  166.3202 C.ar    1  UNL1        0.0015
     17 C         138.8777  139.5247  167.0194 C.ar    1  UNL1        0.0000
     18 C         138.1009  138.3303  166.5505 C.ar    1  UNL1        0.0000
     19 C         138.5921  137.5277  165.3824 C.ar    1  UNL1        0.0000
     20 C         139.8600  137.9194  164.6832 C.ar    1  UNL1        0.0015
     21 O         143.0786  139.2357  156.1130 O.3     1  UNL1       -0.4791
     22 C         142.8772  137.7700  155.8655 C.ar    1  UNL1        0.1384
     23 C         144.0628  136.8733  155.6654 C.ar    1  UNL1        0.0366
     24 C         143.8614  135.4076  155.4180 C.ar    1  UNL1        0.0002
     25 C         142.4743  134.8387  155.3707 C.ar    1  UNL1       -0.0059
     26 C         141.2886  135.7354  155.5708 C.ar    1  UNL1        0.0002
     27 C         141.4900  137.2010  155.8182 C.ar    1  UNL1        0.0366
     28 C         142.2729  133.3730  155.1232 C.3     1  UNL1        0.0991
     29 N         143.2144  132.3740  155.7277 N.3     1  UNL1       -0.2690
     30 C         143.5581  132.2546  157.1830 C.3     1  UNL1        0.0724
     31 C         144.5338  131.1258  157.3377 C.3     1  UNL1        0.0188
     32 C         144.7930  130.5475  155.9781 C.3     1  UNL1        0.0188
     33 C         143.9776  131.3189  154.9831 C.3     1  UNL1        0.0724
@<TRIPOS>BOND
     1     9    10    1
     2    10    11   ar
     3    11    12   ar
     4    12     1    1
     5     1     2    2
     6     1     3   am
     7     3     4    1
     8     4     5    1
     9     5     6    1
    10     6    21    1
    11    21    22    1
    12    22    23   ar
    13    23    24   ar
    14    24    25   ar
    15    25    28    1
    16    28    29    1
    17    29    30    1
    18    30    31    1
    19    31    32    1
    20    32    33    1
    21    25    26   ar
    22    26    27   ar
    23     6     7    1
    24     7     8    1
    25    12    13   ar
    26    13    14   ar
    27    14    15    1
    28    15    16   ar
    29    16    17   ar
    30    17    18   ar
    31    18    19   ar
    32    19    20   ar
    33    14    10   ar
    34    20    15   ar
    35     8     3    1
    36    27    22   ar
    37    33    29    1
@<TRIPOS>MOLECULE
*****
 33 37 0 0 0
SMALL
GASTEIGER

@<TRIPOS>ATOM
      1 C         138.7956  139.6907  159.0172 C.2     1  UNL1        0.2685
      2 O         137.6415  140.0798  158.1415 O.2     1  UNL1       -0.2682
      3 N         139.9791  138.9825  158.4274 N.am    1  UNL1       -0.2746
      4 C         140.0086  138.6635  156.9621 C.3     1  UNL1        0.0975
      5 C         141.1922  137.9554  156.3724 C.3     1  UNL1        0.0651
      6 C         142.3462  137.5663  157.2481 C.3     1  UNL1        0.1693
      7 C         142.3167  137.8853  158.7134 C.3     1  UNL1        0.0651
      8 C         141.1332  138.5934  159.3031 C.3     1  UNL1        0.0975
      9 C         138.4926  139.1760  164.2635 C.3     1  UNL1        0.1537
     10 N         138.6268  139.7731  162.8940 N.ar    1  UNL1       -0.2487
     11 N         138.5969  139.0201  161.5971 N.ar    1  UNL1       -0.1646
     12 C         138.7661  140.0097  160.4826 C.ar    1  UNL1        0.1557
     13 C         138.9006  141.3742  161.0907 C.ar    1  UNL1        0.0442
     14 C         138.8146  141.2281  162.5811 C.ar    1  UNL1        0.0796
     15 C         138.9011  142.3413  163.5827 C.ar    1  UNL1        0.0173
     16 C         137.7387  143.2697  163.7744 C.ar    1  UNL1        0.0015
     17 C         137.8251  144.3829  164.7759 C.ar    1  UNL1        0.0000
     18 C         139.0740  144.5678  165.5858 C.ar    1  UNL1        0.0000
     19 C         140.2365  143.6394  165.3941 C.ar    1  UNL1        0.0000
     20 C         140.1500  142.5262  164.3926 C.ar    1  UNL1        0.0015
     21 O         143.5298  136.8581  156.6583 O.3     1  UNL1       -0.4791
     22 C         143.4602  135.3861  156.3787 C.ar    1  UNL1        0.1384
     23 C         143.2638  134.8979  154.9740 C.ar    1  UNL1        0.0366
     24 C         143.1942  133.4258  154.6944 C.ar    1  UNL1        0.0002
     25 C         143.3212  132.4419  155.8195 C.ar    1  UNL1       -0.0059
     26 C         143.5176  132.9301  157.2242 C.ar    1  UNL1        0.0002
     27 C         143.5872  134.4021  157.5038 C.ar    1  UNL1        0.0366
     28 C         143.2516  130.9699  155.5399 C.3     1  UNL1        0.0991
     29 N         141.9292  130.3225  155.2534 N.3     1  UNL1       -0.2690
     30 C         140.6446  131.0366  154.9533 C.3     1  UNL1        0.0724
     31 C         139.5806  130.0028  154.7311 C.3     1  UNL1        0.0188
     32 C         140.2076  128.6499  154.8940 C.3     1  UNL1        0.0188
     33 C         141.6591  128.8475  155.2167 C.3     1  UNL1        0.0724
@<TRIPOS>BOND
     1     9    10    1
     2    10    11   ar
     3    11    12   ar
     4    12     1    1
     5     1     2    2
     6     1     3   am
     7     3     4    1
     8     4     5    1
     9     5     6    1
    10     6    21    1
    11    21    22    1
    12    22    23   ar
    13    23    24   ar
    14    24    25   ar
    15    25    28    1
    16    28    29    1
    17    29    30    1
    18    30    31    1
    19    31    32    1
    20    32    33    1
    21    25    26   ar
    22    26    27   ar
    23     6     7    1
    24     7     8    1
    25    12    13   ar
    26    13    14   ar
    27    14    15    1
    28    15    16   ar
    29    16    17   ar
    30    17    18   ar
    31    18    19   ar
    32    19    20   ar
    33    14    10   ar
    34    20    15   ar
    35     8     3    1
    36    27    22   ar
    37    33    29    1
@<TRIPOS>MOLECULE
*****
 33 37 0 0 0
SMALL
GASTEIGER

@<TRIPOS>ATOM
      1 C         138.9473  143.4441  164.0131 C.2     1  UNL1        0.2685
      2 O         138.2535  144.7028  164.4423 O.2     1  UNL1       -0.2682
      3 N         139.5389  143.3452  162.6382 N.am    1  UNL1       -0.2746
      4 C         139.4366  144.5050  161.6925 C.3     1  UNL1        0.0975
      5 C         140.0282  144.4061  160.3177 C.3     1  UNL1        0.0651
      6 C         140.7220  143.1473  159.8885 C.3     1  UNL1        0.1693
      7 C         140.8242  141.9875  160.8342 C.3     1  UNL1        0.0651
      8 C         140.2326  142.0864  162.2090 C.3     1  UNL1        0.0975
      9 C         138.0668  138.8156  166.3969 C.3     1  UNL1        0.1537
     10 N         138.6448  140.1568  166.0545 N.ar    1  UNL1       -0.2487
     11 N         138.2003  141.0481  164.9329 N.ar    1  UNL1       -0.1646
     12 C         139.0495  142.2843  164.9588 C.ar    1  UNL1        0.1557
     13 C         140.0189  142.1569  166.0963 C.ar    1  UNL1        0.0442
     14 C         139.7688  140.8421  166.7735 C.ar    1  UNL1        0.0796
     15 C         140.5122  140.3065  167.9612 C.ar    1  UNL1        0.0173
     16 C         139.9035  140.3950  169.3293 C.ar    1  UNL1        0.0015
     17 C         140.6469  139.8594  170.5169 C.ar    1  UNL1        0.0000
     18 C         141.9988  139.2354  170.3366 C.ar    1  UNL1        0.0000
     19 C         142.6076  139.1470  168.9685 C.ar    1  UNL1        0.0000
     20 C         141.8642  139.6825  167.7808 C.ar    1  UNL1        0.0015
     21 O         141.3136  143.0485  158.5136 O.3     1  UNL1       -0.4791
     22 C         140.9697  144.0733  157.4737 C.ar    1  UNL1        0.1384
     23 C         141.9560  145.1483  157.1251 C.ar    1  UNL1        0.0366
     24 C         141.6120  146.1731  156.0851 C.ar    1  UNL1        0.0002
     25 C         140.2818  146.1229  155.3938 C.ar    1  UNL1       -0.0059
     26 C         139.2955  145.0479  155.7424 C.ar    1  UNL1        0.0002
     27 C         139.6394  144.0231  156.7823 C.ar    1  UNL1        0.0366
     28 C         139.9379  147.1477  154.3539 C.3     1  UNL1        0.0991
     29 N         139.4689  148.5103  154.7700 N.3     1  UNL1       -0.2690
     30 C         139.7393  149.7954  154.0450 C.3     1  UNL1        0.0724
     31 C         139.0845  150.9064  154.8111 C.3     1  UNL1        0.0188
     32 C         138.4095  150.3081  156.0096 C.3     1  UNL1        0.0188
     33 C         138.6470  148.8272  155.9841 C.3     1  UNL1        0.0724
@<TRIPOS>BOND
     1     9    10    1
     2    10    11   ar
     3    11    12   ar
     4    12     1    1
     5     1     2    2
     6     1     3   am
     7     3     4    1
     8     4     5    1
     9     5     6    1
    10     6    21    1
    11    21    22    1
    12    22    23   ar
    13    23    24   ar
    14    24    25   ar
    15    25    28    1
    16    28    29    1
    17    29    30    1
    18    30    31    1
    19    31    32    1
    20    32    33    1
    21    25    26   ar
    22    26    27   ar
    23     6     7    1
    24     7     8    1
    25    12    13   ar
    26    13    14   ar
    27    14    15    1
    28    15    16   ar
    29    16    17   ar
    30    17    18   ar
    31    18    19   ar
    32    19    20   ar
    33    14    10   ar
    34    20    15   ar
    35     8     3    1
    36    27    22   ar
    37    33    29    1
@<TRIPOS>MOLECULE
*****
 33 37 0 0 0
SMALL
GASTEIGER

@<TRIPOS>ATOM
      1 C         138.7442  143.8398  164.3878 C.2     1  UNL1        0.2685
      2 O         137.6850  144.7626  164.9137 O.2     1  UNL1       -0.2682
      3 N         139.5171  144.2097  163.1565 N.am    1  UNL1       -0.2746
      4 C         139.2308  145.5022  162.4512 C.3     1  UNL1        0.0975
      5 C         140.0037  145.8719  161.2200 C.3     1  UNL1        0.0651
      6 C         141.0628  144.9491  160.6941 C.3     1  UNL1        0.1693
      7 C         141.3491  143.6566  161.3993 C.3     1  UNL1        0.0651
      8 C         140.5763  143.2869  162.6305 C.3     1  UNL1        0.0975
      9 C         138.6443  138.7454  165.7722 C.3     1  UNL1        0.1537
     10 N         138.9846  140.2057  165.7294 N.ar    1  UNL1       -0.2487
     11 N         138.4117  141.2170  164.7812 N.ar    1  UNL1       -0.1646
     12 C         139.0305  142.5473  165.0930 C.ar    1  UNL1        0.1557
     13 C         139.9859  142.3582  166.2338 C.ar    1  UNL1        0.0442
     14 C         139.9576  140.9110  166.6271 C.ar    1  UNL1        0.0796
     15 C         140.7611  140.2799  167.7253 C.ar    1  UNL1        0.0173
     16 C         142.0891  139.6539  167.4183 C.ar    1  UNL1        0.0015
     17 C         142.8926  139.0227  168.5165 C.ar    1  UNL1        0.0000
     18 C         142.3681  139.0177  169.9218 C.ar    1  UNL1        0.0000
     19 C         141.0400  139.6437  170.2288 C.ar    1  UNL1        0.0000
     20 C         140.2365  140.2748  169.1306 C.ar    1  UNL1        0.0015
     21 O         141.8357  145.3189  159.4628 O.3     1  UNL1       -0.4791
     22 C         141.2472  145.0717  158.1054 C.ar    1  UNL1        0.1384
     23 C         140.3529  146.0991  157.4772 C.ar    1  UNL1        0.0366
     24 C         139.7644  145.8518  156.1198 C.ar    1  UNL1        0.0002
     25 C         140.0702  144.5772  155.3906 C.ar    1  UNL1       -0.0059
     26 C         140.9646  143.5498  156.0188 C.ar    1  UNL1        0.0002
     27 C         141.5531  143.7970  157.3761 C.ar    1  UNL1        0.0366
     28 C         139.4817  144.3300  154.0332 C.3     1  UNL1        0.0991
     29 N         138.1557  143.6407  153.9049 N.3     1  UNL1       -0.2690
     30 C         137.4647  143.2905  152.6203 C.3     1  UNL1        0.0724
     31 C         136.1697  142.6140  152.9601 C.3     1  UNL1        0.0188
     32 C         136.0604  142.5461  154.4546 C.3     1  UNL1        0.0188
     33 C         137.2877  143.1806  155.0385 C.3     1  UNL1        0.0724
@<TRIPOS>BOND
     1     9    10    1
     2    10    11   ar
     3    11    12   ar
     4    12     1    1
     5     1     2    2
     6     1     3   am
     7     3     4    1
     8     4     5    1
     9     5     6    1
    10     6    21    1
    11    21    22    1
    12    22    23   ar
    13    23    24   ar
    14    24    25   ar
    15    25    28    1
    16    28    29    1
    17    29    30    1
    18    30    31    1
    19    31    32    1
    20    32    33    1
    21    25    26   ar
    22    26    27   ar
    23     6     7    1
    24     7     8    1
    25    12    13   ar
    26    13    14   ar
    27    14    15    1
    28    15    16   ar
    29    16    17   ar
    30    17    18   ar
    31    18    19   ar
    32    19    20   ar
    33    14    10   ar
    34    20    15   ar
    35     8     3    1
    36    27    22   ar
    37    33    29    1
@<TRIPOS>MOLECULE
*****
 33 37 0 0 0
SMALL
GASTEIGER

@<TRIPOS>ATOM
      1 C         139.5338  139.5531  161.3899 C.2     1  UNL1        0.2685
      2 O         138.0584  139.3758  161.1853 O.2     1  UNL1       -0.2682
      3 N         140.4959  139.1237  160.3222 N.am    1  UNL1       -0.2746
      4 C         139.9827  138.5171  159.0500 C.3     1  UNL1        0.0975
      5 C         140.9449  138.0878  157.9823 C.3     1  UNL1        0.0651
      6 C         142.4202  138.2651  158.1869 C.3     1  UNL1        0.1693
      7 C         142.9335  138.8716  159.4591 C.3     1  UNL1        0.0651
      8 C         141.9713  139.3010  160.5268 C.3     1  UNL1        0.0975
      9 C         141.5630  142.9773  164.8593 C.3     1  UNL1        0.1537
     10 N         140.9797  141.7336  164.2569 N.ar    1  UNL1       -0.2487
     11 N         140.5800  141.5525  162.8225 N.ar    1  UNL1       -0.1646
     12 C         140.0470  140.1596  162.6621 C.ar    1  UNL1        0.1557
     13 C         140.1173  139.4798  163.9974 C.ar    1  UNL1        0.0442
     14 C         140.6938  140.4526  164.9830 C.ar    1  UNL1        0.0796
     15 C         140.9409  140.1904  166.4391 C.ar    1  UNL1        0.0173
     16 C         139.8289  140.3609  167.4312 C.ar    1  UNL1        0.0015
     17 C         140.0760  140.0987  168.8872 C.ar    1  UNL1        0.0000
     18 C         141.4352  139.6660  169.3512 C.ar    1  UNL1        0.0000
     19 C         142.5472  139.4954  168.3592 C.ar    1  UNL1        0.0000
     20 C         142.3001  139.7576  166.9031 C.ar    1  UNL1        0.0015
     21 O         143.3824  137.8357  157.1192 O.3     1  UNL1       -0.4791
     22 C         143.2221  136.4986  156.4587 C.ar    1  UNL1        0.1384
     23 C         142.9893  136.4159  154.9792 C.ar    1  UNL1        0.0366
     24 C         142.8289  135.0787  154.3187 C.ar    1  UNL1        0.0002
     25 C         142.9014  133.8242  155.1378 C.ar    1  UNL1       -0.0059
     26 C         143.1342  133.9068  156.6173 C.ar    1  UNL1        0.0002
     27 C         143.2945  135.2439  157.2778 C.ar    1  UNL1        0.0366
     28 C         142.7410  132.4870  154.4773 C.3     1  UNL1        0.0991
     29 N         143.1893  131.2425  155.1846 N.3     1  UNL1       -0.2690
     30 C         144.6058  130.7680  155.3218 C.3     1  UNL1        0.0724
     31 C         144.5917  129.4862  156.1009 C.3     1  UNL1        0.0188
     32 C         143.1668  129.1687  156.4453 C.3     1  UNL1        0.0188
     33 C         142.3001  130.2541  155.8790 C.3     1  UNL1        0.0724
@<TRIPOS>BOND
     1     9    10    1
     2    10    11   ar
     3    11    12   ar
     4    12     1    1
     5     1     2    2
     6     1     3   am
     7     3     4    1
     8     4     5    1
     9     5     6    1
    10     6    21    1
    11    21    22    1
    12    22    23   ar
    13    23    24   ar
    14    24    25   ar
    15    25    28    1
    16    28    29    1
    17    29    30    1
    18    30    31    1
    19    31    32    1
    20    32    33    1
    21    25    26   ar
    22    26    27   ar
    23     6     7    1
    24     7     8    1
    25    12    13   ar
    26    13    14   ar
    27    14    15    1
    28    15    16   ar
    29    16    17   ar
    30    17    18   ar
    31    18    19   ar
    32    19    20   ar
    33    14    10   ar
    34    20    15   ar
    35     8     3    1
    36    27    22   ar
    37    33    29    1
@<TRIPOS>MOLECULE
*****
 33 37 0 0 0
SMALL
GASTEIGER

@<TRIPOS>ATOM
      1 C         143.4791  136.7766  155.8158 C.2     1  UNL1        0.2685
      2 O         144.8044  137.4710  155.7089 O.2     1  UNL1       -0.2682
      3 N         142.2755  137.5284  156.3019 N.am    1  UNL1       -0.2746
      4 C         142.3972  138.9745  156.6811 C.3     1  UNL1        0.0975
      5 C         141.1937  139.7262  157.1671 C.3     1  UNL1        0.0651
      6 C         139.8684  139.0318  157.2741 C.3     1  UNL1        0.1693
      7 C         139.7467  137.5857  156.8949 C.3     1  UNL1        0.0651
      8 C         140.9503  136.8339  156.4088 C.3     1  UNL1        0.0975
      9 C         142.3464  132.3625  153.1487 C.3     1  UNL1        0.1537
     10 N         142.8368  133.3015  154.2107 N.ar    1  UNL1       -0.2487
     11 N         142.7465  134.7983  154.1743 N.ar    1  UNL1       -0.1646
     12 C         143.3574  135.3304  155.4367 C.ar    1  UNL1        0.1557
     13 C         143.8253  134.1624  156.2533 C.ar    1  UNL1        0.0442
     14 C         143.5035  132.9085  155.4957 C.ar    1  UNL1        0.0796
     15 C         143.7969  131.5075  155.9442 C.ar    1  UNL1        0.0173
     16 C         143.1784  130.9783  157.2040 C.ar    1  UNL1        0.0015
     17 C         143.4718  129.5773  157.6525 C.ar    1  UNL1        0.0000
     18 C         144.3837  128.7056  156.8412 C.ar    1  UNL1        0.0000
     19 C         145.0022  129.2347  155.5813 C.ar    1  UNL1        0.0000
     20 C         144.7088  130.6357  155.1328 C.ar    1  UNL1        0.0015
     21 O         138.6648  139.7836  157.7602 O.3     1  UNL1       -0.4791
     22 C         138.5413  140.1443  159.2109 C.ar    1  UNL1        0.1384
     23 C         138.5003  139.0646  160.2513 C.ar    1  UNL1        0.0366
     24 C         138.3768  139.4254  161.7021 C.ar    1  UNL1        0.0002
     25 C         138.2943  140.8658  162.1123 C.ar    1  UNL1       -0.0059
     26 C         138.3353  141.9455  161.0719 C.ar    1  UNL1        0.0002
     27 C         138.4588  141.5848  159.6212 C.ar    1  UNL1        0.0366
     28 C         138.1708  141.2265  163.5630 C.3     1  UNL1        0.0991
     29 N         138.7111  142.5349  164.0592 N.3     1  UNL1       -0.2690
     30 C         137.8973  143.6976  164.5450 C.3     1  UNL1        0.0724
     31 C         138.8434  144.7916  164.9428 C.3     1  UNL1        0.0188
     32 C         140.2419  144.3050  164.7028 C.3     1  UNL1        0.0188
     33 C         140.1601  142.9103  164.1567 C.3     1  UNL1        0.0724
@<TRIPOS>BOND
     1     9    10    1
     2    10    11   ar
     3    11    12   ar
     4    12     1    1
     5     1     2    2
     6     1     3   am
     7     3     4    1
     8     4     5    1
     9     5     6    1
    10     6    21    1
    11    21    22    1
    12    22    23   ar
    13    23    24   ar
    14    24    25   ar
    15    25    28    1
    16    28    29    1
    17    29    30    1
    18    30    31    1
    19    31    32    1
    20    32    33    1
    21    25    26   ar
    22    26    27   ar
    23     6     7    1
    24     7     8    1
    25    12    13   ar
    26    13    14   ar
    27    14    15    1
    28    15    16   ar
    29    16    17   ar
    30    17    18   ar
    31    18    19   ar
    32    19    20   ar
    33    14    10   ar
    34    20    15   ar
    35     8     3    1
    36    27    22   ar
    37    33    29    1
@<TRIPOS>MOLECULE
*****
 33 37 0 0 0
SMALL
GASTEIGER

@<TRIPOS>ATOM
      1 C         139.8304  138.6476  163.3356 C.2     1  UNL1        0.2685
      2 O         138.3689  138.5412  163.6558 O.2     1  UNL1       -0.2682
      3 N         140.2897  138.6158  161.9079 N.am    1  UNL1       -0.2746
      4 C         139.2873  138.4777  160.8006 C.3     1  UNL1        0.0975
      5 C         139.7466  138.4460  159.3730 C.3     1  UNL1        0.0651
      6 C         141.2081  138.5523  159.0527 C.3     1  UNL1        0.1693
      7 C         142.2104  138.6905  160.1601 C.3     1  UNL1        0.0651
      8 C         141.7512  138.7222  161.5877 C.3     1  UNL1        0.0975
      9 C         144.0843  137.9210  166.3781 C.3     1  UNL1        0.1537
     10 N         142.7880  138.4517  165.8414 N.ar    1  UNL1       -0.2487
     11 N         142.0899  137.9826  164.5995 N.ar    1  UNL1       -0.1646
     12 C         140.8327  138.7857  164.4429 C.ar    1  UNL1        0.1557
     13 C         140.7539  139.7513  165.5882 C.ar    1  UNL1        0.0442
     14 C         141.9623  139.5449  166.4525 C.ar    1  UNL1        0.0796
     15 C         142.2879  140.2991  167.7075 C.ar    1  UNL1        0.0173
     16 C         142.8113  141.7023  167.6249 C.ar    1  UNL1        0.0015
     17 C         143.1369  142.4566  168.8799 C.ar    1  UNL1        0.0000
     18 C         142.9391  141.8076  170.2176 C.ar    1  UNL1        0.0000
     19 C         142.4157  140.4043  170.3004 C.ar    1  UNL1        0.0000
     20 C         142.0901  139.6501  169.0453 C.ar    1  UNL1        0.0015
     21 O         141.6673  138.5206  157.6251 O.3     1  UNL1       -0.4791
     22 C         141.8215  137.2079  156.9158 C.ar    1  UNL1        0.1384
     23 C         143.0277  136.3539  157.1724 C.ar    1  UNL1        0.0366
     24 C         143.1818  135.0411  156.4631 C.ar    1  UNL1        0.0002
     25 C         142.1297  134.5824  155.4973 C.ar    1  UNL1       -0.0059
     26 C         140.9235  135.4364  155.2408 C.ar    1  UNL1        0.0002
     27 C         140.7694  136.7491  155.9500 C.ar    1  UNL1        0.0366
     28 C         142.2839  133.2698  154.7881 C.3     1  UNL1        0.0991
     29 N         143.0315  132.1465  155.4433 N.3     1  UNL1       -0.2690
     30 C         142.8549  131.6760  156.8567 C.3     1  UNL1        0.0724
     31 C         143.8014  130.5352  157.0871 C.3     1  UNL1        0.0188
     32 C         144.5629  130.3008  155.8162 C.3     1  UNL1        0.0188
     33 C         144.0871  131.2966  154.8003 C.3     1  UNL1        0.0724
@<TRIPOS>BOND
     1     9    10    1
     2    10    11   ar
     3    11    12   ar
     4    12     1    1
     5     1     2    2
     6     1     3   am
     7     3     4    1
     8     4     5    1
     9     5     6    1
    10     6    21    1
    11    21    22    1
    12    22    23   ar
    13    23    24   ar
    14    24    25   ar
    15    25    28    1
    16    28    29    1
    17    29    30    1
    18    30    31    1
    19    31    32    1
    20    32    33    1
    21    25    26   ar
    22    26    27   ar
    23     6     7    1
    24     7     8    1
    25    12    13   ar
    26    13    14   ar
    27    14    15    1
    28    15    16   ar
    29    16    17   ar
    30    17    18   ar
    31    18    19   ar
    32    19    20   ar
    33    14    10   ar
    34    20    15   ar
    35     8     3    1
    36    27    22   ar
    37    33    29    1
