@<TRIPOS>MOLECULE
*****
 33 36 0 0 0
SMALL
GASTEIGER

@<TRIPOS>ATOM
      1 C         141.5265  143.2426  161.5820 C.ar    1  UNL1        0.0537
      2 C         141.8624  142.2160  160.5412 C.ar    1  UNL1        0.0060
      3 C         142.3284  140.8519  160.9562 C.ar    1  UNL1        0.0173
      4 C         142.4583  140.5144  162.4119 C.ar    1  UNL1        0.0594
      5 C         142.1223  141.5410  163.4527 C.ar    1  UNL1        0.0130
      6 C         141.6564  142.9051  163.0377 C.ar    1  UNL1        0.0057
      7 C         142.3457  140.9239  164.8016 C.ar    1  UNL1       -0.0091
      8 C         142.8197  139.5160  164.5944 C.ar    1  UNL1        0.0331
      9 N         142.8893  139.2629  163.1175 N.ar    1  UNL1       -0.3289
     10 C         143.3152  137.9830  162.4614 C.3     1  UNL1        0.1301
     11 C         143.1268  138.6463  165.7773 C.3     1  UNL1        0.0435
     12 C         142.9598  139.1846  167.1674 C.3     1  UNL1        0.0066
     13 C         142.4857  140.5925  167.3745 C.3     1  UNL1        0.0049
     14 C         142.1787  141.4622  166.1916 C.3     1  UNL1        0.0275
     15 C         142.3187  141.1308  168.7647 C.3     1  UNL1        0.0053
     16 C         143.0156  142.3965  169.1676 C.3     1  UNL1        0.0322
     17 C         142.8486  142.9347  170.5577 C.3     1  UNL1        0.1422
     18 O         141.9847  142.2072  171.5449 O.3     1  UNL1       -0.3538
     19 C         141.2878  140.9415  171.1420 C.3     1  UNL1        0.1422
     20 C         141.4548  140.4033  169.7519 C.3     1  UNL1        0.0322
     21 N         139.9354  145.2711  161.9035 N.am    1  UNL1       -0.2743
     22 C         139.4695  146.6352  161.4886 C.3     1  UNL1        0.1152
     23 C         141.0605  144.6067  161.1670 C.2     1  UNL1        0.2491
     24 O         141.7197  145.3063  160.0155 O.2     1  UNL1       -0.2699
     25 C         139.2761  144.5715  163.0551 C.3     1  UNL1        0.0943
     26 C         137.9389  143.9179  162.8694 C.3     1  UNL1        0.0311
     27 C         137.8428  142.5893  162.1796 C.3     1  UNL1        0.0889
     28 N         137.6087  141.1243  164.3123 N.am    1  UNL1       -0.1932
     29 C         138.1564  141.3297  162.9311 C.2     1  UNL1        0.2446
     30 O         139.0178  140.2754  162.3014 O.2     1  UNL1       -0.2730
     31 H         137.0433  141.8162  164.7255 H       1  UNL1        0.1825
     32 C         138.9642  139.8746  166.1429 C.3     1  UNL1        0.2055
     33 O         137.9223  139.8645  165.0638 O.3     1  UNL1       -0.2636
@<TRIPOS>BOND
     1    32    33    1
     2    33    28    1
     3    28    29   am
     4    29    30    2
     5    29    27    1
     6    27    26    1
     7    26    25    1
     8    25    21    1
     9    21    22    1
    10    21    23   am
    11    23    24    2
    12    23     1    1
    13     1     2   ar
    14     2     3   ar
    15     3     4   ar
    16     4     5   ar
    17     5     6   ar
    18     5     7   ar
    19     7     8   ar
    20     8     9   ar
    21     9    10    1
    22     8    11    1
    23    11    12    1
    24    12    13    1
    25    13    15    1
    26    15    16    1
    27    16    17    1
    28    17    18    1
    29    18    19    1
    30    19    20    1
    31    13    14    1
    32     6     1   ar
    33    14     7    1
    34     9     4   ar
    35    20    15    1
    36    28    31    1
@<TRIPOS>MOLECULE
*****
 33 36 0 0 0
SMALL
GASTEIGER

@<TRIPOS>ATOM
      1 C         140.0173  142.9889  160.7048 C.ar    1  UNL1        0.0537
      2 C         139.4412  141.8123  159.9743 C.ar    1  UNL1        0.0060
      3 C         139.1192  140.5510  160.7197 C.ar    1  UNL1        0.0173
      4 C         139.3733  140.4664  162.1956 C.ar    1  UNL1        0.0594
      5 C         139.9494  141.6430  162.9261 C.ar    1  UNL1        0.0130
      6 C         140.2714  142.9043  162.1807 C.ar    1  UNL1        0.0057
      7 C         140.0901  141.2677  164.3716 C.ar    1  UNL1       -0.0091
      8 C         139.6010  139.8590  164.5344 C.ar    1  UNL1        0.0331
      9 N         139.1580  139.3638  163.1896 N.ar    1  UNL1       -0.3289
     10 C         138.5980  138.0047  162.8911 C.3     1  UNL1        0.1301
     11 C         139.6222  139.2093  165.8861 C.3     1  UNL1        0.0435
     12 C         140.1326  139.9681  167.0751 C.3     1  UNL1        0.0066
     13 C         140.6217  141.3768  166.9123 C.3     1  UNL1        0.0049
     14 C         140.6005  142.0265  165.5605 C.3     1  UNL1        0.0275
     15 C         141.1321  142.1356  168.1013 C.3     1  UNL1        0.0053
     16 C         142.5301  141.9061  168.5938 C.3     1  UNL1        0.0322
     17 C         143.0405  142.6650  169.7828 C.3     1  UNL1        0.1422
     18 O         142.1527  143.6534  170.4792 O.3     1  UNL1       -0.3538
     19 C         140.7546  143.8830  169.9867 C.3     1  UNL1        0.1422
     20 C         140.2442  143.1241  168.7977 C.3     1  UNL1        0.0322
     21 N         141.2865  144.2132  158.7969 N.am    1  UNL1       -0.2743
     22 C         141.6085  145.4745  158.0515 C.3     1  UNL1        0.1152
     23 C         140.3393  144.2501  159.9594 C.2     1  UNL1        0.2491
     24 O         139.7141  145.5482  160.3765 O.2     1  UNL1       -0.2699
     25 C         141.9117  142.9151  158.3798 C.3     1  UNL1        0.0943
     26 C         143.3426  142.6267  158.7250 C.3     1  UNL1        0.0311
     27 C         143.6766  141.9061  159.9976 C.3     1  UNL1        0.0889
     28 N         143.6914  144.0006  161.5347 N.am    1  UNL1       -0.1932
     29 C         144.2529  142.6616  161.1582 C.2     1  UNL1        0.2446
     30 O         145.3907  142.0781  161.9423 O.2     1  UNL1       -0.2730
     31 H         142.9446  144.3835  161.0200 H       1  UNL1        0.1825
     32 C         143.5336  144.7966  164.0028 C.3     1  UNL1        0.2055
     33 O         144.2677  144.7561  162.6953 O.3     1  UNL1       -0.2636
@<TRIPOS>BOND
     1    32    33    1
     2    33    28    1
     3    28    29   am
     4    29    30    2
     5    29    27    1
     6    27    26    1
     7    26    25    1
     8    25    21    1
     9    21    22    1
    10    21    23   am
    11    23    24    2
    12    23     1    1
    13     1     2   ar
    14     2     3   ar
    15     3     4   ar
    16     4     5   ar
    17     5     6   ar
    18     5     7   ar
    19     7     8   ar
    20     8     9   ar
    21     9    10    1
    22     8    11    1
    23    11    12    1
    24    12    13    1
    25    13    15    1
    26    15    16    1
    27    16    17    1
    28    17    18    1
    29    18    19    1
    30    19    20    1
    31    13    14    1
    32     6     1   ar
    33    14     7    1
    34     9     4   ar
    35    20    15    1
    36    28    31    1
@<TRIPOS>MOLECULE
*****
 33 36 0 0 0
SMALL
GASTEIGER

@<TRIPOS>ATOM
      1 C         141.4293  141.6134  160.7704 C.ar    1  UNL1        0.0537
      2 C         140.7390  140.4405  160.1398 C.ar    1  UNL1        0.0060
      3 C         140.0357  139.4329  161.0000 C.ar    1  UNL1        0.0173
      4 C         140.0227  139.5981  162.4908 C.ar    1  UNL1        0.0594
      5 C         140.7130  140.7710  163.1214 C.ar    1  UNL1        0.0130
      6 C         141.4164  141.7787  162.2611 C.ar    1  UNL1        0.0057
      7 C         140.5331  140.6709  164.6072 C.ar    1  UNL1       -0.0091
      8 C         139.7315  139.4362  164.8949 C.ar    1  UNL1        0.0331
      9 N         139.4161  138.7731  163.5869 N.ar    1  UNL1       -0.3289
     10 C         138.6318  137.5073  163.4066 C.3     1  UNL1        0.1301
     11 C         139.3924  139.0750  166.3107 C.3     1  UNL1        0.0435
     12 C         139.8549  139.9488  167.4388 C.3     1  UNL1        0.0066
     13 C         140.6565  141.1835  167.1512 C.3     1  UNL1        0.0049
     14 C         140.9956  141.5446  165.7353 C.3     1  UNL1        0.0275
     15 C         141.1189  142.0573  168.2793 C.3     1  UNL1        0.0053
     16 C         142.4847  141.8619  168.8679 C.3     1  UNL1        0.0322
     17 C         142.9472  142.7357  169.9961 C.3     1  UNL1        0.1422
     18 O         142.0438  143.8047  170.5357 O.3     1  UNL1       -0.3538
     19 C         140.6780  144.0000  169.9471 C.3     1  UNL1        0.1422
     20 C         140.2155  143.1263  168.8189 C.3     1  UNL1        0.0322
     21 N         141.3909  143.8220  159.4027 N.am    1  UNL1       -0.2743
     22 C         142.0942  144.8297  158.5425 C.3     1  UNL1        0.1152
     23 C         142.1326  142.6211  159.9101 C.2     1  UNL1        0.2491
     24 O         143.5777  142.4279  159.5574 O.2     1  UNL1       -0.2699
     25 C         139.9458  144.0153  159.7554 C.3     1  UNL1        0.0943
     26 C         139.5686  144.5601  161.1011 C.3     1  UNL1        0.0311
     27 C         140.4135  145.6190  161.7452 C.3     1  UNL1        0.0889
     28 N         142.9152  145.2057  162.3111 N.am    1  UNL1       -0.1932
     29 C         141.4758  145.2338  162.7317 C.2     1  UNL1        0.2446
     30 O         141.0985  144.8767  164.1389 O.2     1  UNL1       -0.2730
     31 H         143.1628  145.4401  161.3875 H       1  UNL1        0.1825
     32 C         144.4452  143.3976  163.3788 C.3     1  UNL1        0.2055
     33 O         143.9776  144.8205  163.2976 O.3     1  UNL1       -0.2636
@<TRIPOS>BOND
     1    32    33    1
     2    33    28    1
     3    28    29   am
     4    29    30    2
     5    29    27    1
     6    27    26    1
     7    26    25    1
     8    25    21    1
     9    21    22    1
    10    21    23   am
    11    23    24    2
    12    23     1    1
    13     1     2   ar
    14     2     3   ar
    15     3     4   ar
    16     4     5   ar
    17     5     6   ar
    18     5     7   ar
    19     7     8   ar
    20     8     9   ar
    21     9    10    1
    22     8    11    1
    23    11    12    1
    24    12    13    1
    25    13    15    1
    26    15    16    1
    27    16    17    1
    28    17    18    1
    29    18    19    1
    30    19    20    1
    31    13    14    1
    32     6     1   ar
    33    14     7    1
    34     9     4   ar
    35    20    15    1
    36    28    31    1
@<TRIPOS>MOLECULE
*****
 33 36 0 0 0
SMALL
GASTEIGER

@<TRIPOS>ATOM
      1 C         141.9941  143.2037  160.5433 C.ar    1  UNL1        0.0537
      2 C         141.5951  141.7658  160.3915 C.ar    1  UNL1        0.0060
      3 C         140.6616  141.3587  159.2902 C.ar    1  UNL1        0.0173
      4 C         140.1271  142.3896  158.3407 C.ar    1  UNL1        0.0594
      5 C         140.5262  143.8275  158.4925 C.ar    1  UNL1        0.0130
      6 C         141.4597  144.2346  159.5938 C.ar    1  UNL1        0.0057
      7 C         139.8434  144.6145  157.4133 C.ar    1  UNL1       -0.0091
      8 C         139.0224  143.6629  156.5945 C.ar    1  UNL1        0.0331
      9 N         139.1978  142.2879  157.1677 N.ar    1  UNL1       -0.3289
     10 C         138.5564  141.0316  156.6574 C.3     1  UNL1        0.1301
     11 C         138.2213  144.1714  155.4329 C.3     1  UNL1        0.0435
     12 C         138.2411  145.6316  155.0900 C.3     1  UNL1        0.0066
     13 C         139.0621  146.5832  155.9088 C.3     1  UNL1        0.0049
     14 C         139.8633  146.0746  157.0704 C.3     1  UNL1        0.0275
     15 C         139.0819  148.0433  155.5658 C.3     1  UNL1        0.0053
     16 C         138.5155  149.0470  156.5260 C.3     1  UNL1        0.0322
     17 C         138.5353  150.5071  156.1831 C.3     1  UNL1        0.1422
     18 O         139.1216  150.9636  154.8800 O.3     1  UNL1       -0.3538
     19 C         139.6880  149.9600  153.9198 C.3     1  UNL1        0.1422
     20 C         139.6682  148.4998  154.2627 C.3     1  UNL1        0.0322
     21 N         142.3876  143.9214  163.0091 N.am    1  UNL1       -0.2743
     22 C         143.3211  144.3284  164.1104 C.3     1  UNL1        0.1152
     23 C         142.9277  143.6107  161.6446 C.2     1  UNL1        0.2491
     24 O         144.4012  143.7071  161.3815 O.2     1  UNL1       -0.2699
     25 C         140.9140  143.8250  163.2723 C.3     1  UNL1        0.0943
     26 C         140.0392  145.0297  163.0899 C.3     1  UNL1        0.0311
     27 C         138.5626  144.8607  162.8871 C.3     1  UNL1        0.0889
     28 N         137.4545  142.5652  163.3898 N.am    1  UNL1       -0.1932
     29 C         138.0169  143.5486  162.4067 C.2     1  UNL1        0.2446
     30 O         138.0336  143.2200  160.9433 O.2     1  UNL1       -0.2730
     31 H         137.4435  142.7809  164.3504 H       1  UNL1        0.1825
     32 C         137.8458  140.1482  162.5208 C.3     1  UNL1        0.2055
     33 O         136.9088  141.2531  162.9095 O.3     1  UNL1       -0.2636
@<TRIPOS>BOND
     1    32    33    1
     2    33    28    1
     3    28    29   am
     4    29    30    2
     5    29    27    1
     6    27    26    1
     7    26    25    1
     8    25    21    1
     9    21    22    1
    10    21    23   am
    11    23    24    2
    12    23     1    1
    13     1     2   ar
    14     2     3   ar
    15     3     4   ar
    16     4     5   ar
    17     5     6   ar
    18     5     7   ar
    19     7     8   ar
    20     8     9   ar
    21     9    10    1
    22     8    11    1
    23    11    12    1
    24    12    13    1
    25    13    15    1
    26    15    16    1
    27    16    17    1
    28    17    18    1
    29    18    19    1
    30    19    20    1
    31    13    14    1
    32     6     1   ar
    33    14     7    1
    34     9     4   ar
    35    20    15    1
    36    28    31    1
@<TRIPOS>MOLECULE
*****
 33 36 0 0 0
SMALL
GASTEIGER

@<TRIPOS>ATOM
      1 C         142.9292  140.6564  161.6719 C.ar    1  UNL1        0.0537
      2 C         142.1818  139.7348  160.7543 C.ar    1  UNL1        0.0060
      3 C         140.9855  138.9829  161.2578 C.ar    1  UNL1        0.0173
      4 C         140.5367  139.1525  162.6789 C.ar    1  UNL1        0.0594
      5 C         141.2840  140.0740  163.5966 C.ar    1  UNL1        0.0130
      6 C         142.4803  140.8260  163.0931 C.ar    1  UNL1        0.0057
      7 C         140.6117  140.0391  164.9371 C.ar    1  UNL1       -0.0091
      8 C         139.4487  139.0960  164.8478 C.ar    1  UNL1        0.0331
      9 N         139.4024  138.5480  163.4522 N.ar    1  UNL1       -0.3289
     10 C         138.3981  137.5677  162.9228 C.3     1  UNL1        0.1301
     11 C         138.5822  138.8579  166.0488 C.3     1  UNL1        0.0435
     12 C         138.8787  139.5631  167.3391 C.3     1  UNL1        0.0066
     13 C         140.0416  140.5063  167.4283 C.3     1  UNL1        0.0049
     14 C         140.9081  140.7443  166.2273 C.3     1  UNL1        0.0275
     15 C         140.3381  141.2114  168.7186 C.3     1  UNL1        0.0053
     16 C         140.5672  140.4186  169.9712 C.3     1  UNL1        0.0322
     17 C         140.8636  141.1238  171.2615 C.3     1  UNL1        0.1422
     18 O         140.9310  142.6218  171.2992 O.3     1  UNL1       -0.3538
     19 C         140.7018  143.4147  170.0467 C.3     1  UNL1        0.1422
     20 C         140.4054  142.7095  168.7564 C.3     1  UNL1        0.0322
     21 N         144.0654  142.1151  159.8468 N.am    1  UNL1       -0.2743
     22 C         145.2617  142.8670  159.3433 C.3     1  UNL1        0.1152
     23 C         144.1255  141.4083  161.1684 C.2     1  UNL1        0.2491
     24 O         145.3819  141.4534  161.9866 O.2     1  UNL1       -0.2699
     25 C         142.8090  142.0699  159.0286 C.3     1  UNL1        0.0943
     26 C         141.9027  143.2642  158.9794 C.3     1  UNL1        0.0311
     27 C         141.5697  144.0054  160.2403 C.3     1  UNL1        0.0889
     28 N         139.8000  145.0233  161.8471 N.am    1  UNL1       -0.1932
     29 C         140.1372  144.1960  160.6422 C.2     1  UNL1        0.2446
     30 O         139.0418  143.5592  159.8392 O.2     1  UNL1       -0.2730
     31 H         140.5189  145.4412  162.3741 H       1  UNL1        0.1825
     32 C         137.6994  144.2111  163.1424 C.3     1  UNL1        0.2055
     33 O         138.3674  145.2139  162.2490 O.3     1  UNL1       -0.2636
@<TRIPOS>BOND
     1    32    33    1
     2    33    28    1
     3    28    29   am
     4    29    30    2
     5    29    27    1
     6    27    26    1
     7    26    25    1
     8    25    21    1
     9    21    22    1
    10    21    23   am
    11    23    24    2
    12    23     1    1
    13     1     2   ar
    14     2     3   ar
    15     3     4   ar
    16     4     5   ar
    17     5     6   ar
    18     5     7   ar
    19     7     8   ar
    20     8     9   ar
    21     9    10    1
    22     8    11    1
    23    11    12    1
    24    12    13    1
    25    13    15    1
    26    15    16    1
    27    16    17    1
    28    17    18    1
    29    18    19    1
    30    19    20    1
    31    13    14    1
    32     6     1   ar
    33    14     7    1
    34     9     4   ar
    35    20    15    1
    36    28    31    1
@<TRIPOS>MOLECULE
*****
 33 36 0 0 0
SMALL
GASTEIGER

@<TRIPOS>ATOM
      1 C         140.4451  140.3604  160.1214 C.ar    1  UNL1        0.0537
      2 C         140.0011  141.5885  159.3836 C.ar    1  UNL1        0.0060
      3 C         139.6707  142.8403  160.1412 C.ar    1  UNL1        0.0173
      4 C         139.7842  142.8638  161.6367 C.ar    1  UNL1        0.0594
      5 C         140.2282  141.6356  162.3745 C.ar    1  UNL1        0.0130
      6 C         140.5586  140.3839  161.6169 C.ar    1  UNL1        0.0057
      7 C         140.2463  141.9563  163.8398 C.ar    1  UNL1       -0.0091
      8 C         139.8136  143.3827  164.0075 C.ar    1  UNL1        0.0331
      9 N         139.5280  143.9435  162.6459 N.ar    1  UNL1       -0.3289
     10 C         139.0670  145.3391  162.3461 C.3     1  UNL1        0.1301
     11 C         139.7354  143.9866  165.3783 C.3     1  UNL1        0.0435
     12 C         140.0901  143.1640  166.5815 C.3     1  UNL1        0.0066
     13 C         140.5229  141.7376  166.4138 C.3     1  UNL1        0.0049
     14 C         140.6010  141.1338  165.0429 C.3     1  UNL1        0.0275
     15 C         140.8776  140.9151  167.6170 C.3     1  UNL1        0.0053
     16 C         139.9381  140.8500  168.7845 C.3     1  UNL1        0.0322
     17 C         140.2927  140.0275  169.9877 C.3     1  UNL1        0.1422
     18 O         141.5870  139.2700  170.0233 O.3     1  UNL1       -0.3538
     19 C         142.5265  139.3351  168.8558 C.3     1  UNL1        0.1422
     20 C         142.1719  140.1576  167.6526 C.3     1  UNL1        0.0322
     21 N         142.2078  138.7311  159.1273 N.am    1  UNL1       -0.2743
     22 C         142.5382  137.4794  158.3696 C.3     1  UNL1        0.1152
     23 C         140.7755  139.1087  159.3638 C.2     1  UNL1        0.2491
     24 O         139.6736  138.2345  158.8427 O.2     1  UNL1       -0.2699
     25 C         143.3097  139.6054  159.6484 C.3     1  UNL1        0.0943
     26 C         144.2547  139.0810  160.6886 C.3     1  UNL1        0.0311
     27 C         143.8195  138.9936  162.1214 C.3     1  UNL1        0.0889
     28 N         144.1811  141.4256  162.9604 N.am    1  UNL1       -0.1932
     29 C         144.3775  139.9488  163.1344 C.2     1  UNL1        0.2446
     30 O         145.1319  139.4272  164.3213 O.2     1  UNL1       -0.2730
     31 H         143.6859  141.7680  162.1814 H       1  UNL1        0.1825
     32 C         143.9621  142.6929  165.2179 C.3     1  UNL1        0.2055
     33 O         144.7391  142.3810  163.9734 O.3     1  UNL1       -0.2636
@<TRIPOS>BOND
     1    32    33    1
     2    33    28    1
     3    28    29   am
     4    29    30    2
     5    29    27    1
     6    27    26    1
     7    26    25    1
     8    25    21    1
     9    21    22    1
    10    21    23   am
    11    23    24    2
    12    23     1    1
    13     1     2   ar
    14     2     3   ar
    15     3     4   ar
    16     4     5   ar
    17     5     6   ar
    18     5     7   ar
    19     7     8   ar
    20     8     9   ar
    21     9    10    1
    22     8    11    1
    23    11    12    1
    24    12    13    1
    25    13    15    1
    26    15    16    1
    27    16    17    1
    28    17    18    1
    29    18    19    1
    30    19    20    1
    31    13    14    1
    32     6     1   ar
    33    14     7    1
    34     9     4   ar
    35    20    15    1
    36    28    31    1
@<TRIPOS>MOLECULE
*****
 33 36 0 0 0
SMALL
GASTEIGER

@<TRIPOS>ATOM
      1 C         140.3012  140.6478  167.0397 C.ar    1  UNL1        0.0537
      2 C         141.4737  141.0093  167.9025 C.ar    1  UNL1        0.0060
      3 C         142.5748  141.8658  167.3511 C.ar    1  UNL1        0.0173
      4 C         142.5034  142.3607  165.9370 C.ar    1  UNL1        0.0594
      5 C         141.3309  141.9992  165.0742 C.ar    1  UNL1        0.0130
      6 C         140.2298  141.1427  165.6256 C.ar    1  UNL1        0.0057
      7 C         141.5339  142.6295  163.7282 C.ar    1  UNL1       -0.0091
      8 C         142.8320  143.3806  163.7592 C.ar    1  UNL1        0.0331
      9 N         143.4311  143.2145  165.1243 N.ar    1  UNL1       -0.3289
     10 C         144.7300  143.7994  165.5942 C.3     1  UNL1        0.1301
     11 C         143.3006  144.1188  162.5405 C.3     1  UNL1        0.0435
     12 C         142.4713  144.1058  161.2907 C.3     1  UNL1        0.0066
     13 C         141.1732  143.3548  161.2597 C.3     1  UNL1        0.0049
     14 C         140.7046  142.6166  162.4785 C.3     1  UNL1        0.0275
     15 C         140.3439  143.3418  160.0099 C.3     1  UNL1        0.0053
     16 C         139.1730  142.4112  159.8964 C.3     1  UNL1        0.0322
     17 C         138.3436  142.3983  158.6466 C.3     1  UNL1        0.1422
     18 O         138.6852  143.3160  157.5103 O.3     1  UNL1       -0.3538
     19 C         139.8560  144.2467  157.6238 C.3     1  UNL1        0.1422
     20 C         140.6854  144.2596  158.8736 C.3     1  UNL1        0.0322
     21 N         138.4287  138.8831  166.6801 N.am    1  UNL1       -0.2743
     22 C         137.3275  138.0267  167.2315 C.3     1  UNL1        0.1152
     23 C         139.2001  139.7913  167.5911 C.2     1  UNL1        0.2491
     24 O         138.8704  139.8431  169.0535 O.2     1  UNL1       -0.2699
     25 C         138.7583  138.8314  165.2176 C.3     1  UNL1        0.0943
     26 C         139.3907  137.6026  164.6344 C.3     1  UNL1        0.0311
     27 C         140.4416  137.7322  163.5719 C.3     1  UNL1        0.0889
     28 N         142.8504  138.4162  162.8795 N.am    1  UNL1       -0.1932
     29 C         141.8474  138.0961  163.9478 C.2     1  UNL1        0.2446
     30 O         142.2501  138.1398  165.3921 O.2     1  UNL1       -0.2730
     31 H         142.5860  138.3876  161.9315 H       1  UNL1        0.1825
     32 C         144.6367  140.2204  163.4311 C.3     1  UNL1        0.2055
     33 O         144.2562  138.7801  163.2554 O.3     1  UNL1       -0.2636
@<TRIPOS>BOND
     1    32    33    1
     2    33    28    1
     3    28    29   am
     4    29    30    2
     5    29    27    1
     6    27    26    1
     7    26    25    1
     8    25    21    1
     9    21    22    1
    10    21    23   am
    11    23    24    2
    12    23     1    1
    13     1     2   ar
    14     2     3   ar
    15     3     4   ar
    16     4     5   ar
    17     5     6   ar
    18     5     7   ar
    19     7     8   ar
    20     8     9   ar
    21     9    10    1
    22     8    11    1
    23    11    12    1
    24    12    13    1
    25    13    15    1
    26    15    16    1
    27    16    17    1
    28    17    18    1
    29    18    19    1
    30    19    20    1
    31    13    14    1
    32     6     1   ar
    33    14     7    1
    34     9     4   ar
    35    20    15    1
    36    28    31    1
@<TRIPOS>MOLECULE
*****
 33 36 0 0 0
SMALL
GASTEIGER

@<TRIPOS>ATOM
      1 C         141.1482  142.6332  160.0479 C.ar    1  UNL1        0.0537
      2 C         142.5814  142.9152  159.7067 C.ar    1  UNL1        0.0060
      3 C         143.6609  142.6296  160.7082 C.ar    1  UNL1        0.0173
      4 C         143.3073  142.0621  162.0509 C.ar    1  UNL1        0.0594
      5 C         141.8741  141.7802  162.3921 C.ar    1  UNL1        0.0130
      6 C         140.7945  142.0658  161.3905 C.ar    1  UNL1        0.0057
      7 C         141.8297  141.2246  163.7848 C.ar    1  UNL1       -0.0091
      8 C         143.2355  141.1632  164.3043 C.ar    1  UNL1        0.0331
      9 N         144.1487  141.6808  163.2327 N.ar    1  UNL1       -0.3289
     10 C         145.6412  141.7968  163.3264 C.3     1  UNL1        0.1301
     11 C         143.5025  140.6440  165.6859 C.3     1  UNL1        0.0435
     12 C         142.3636  140.1861  166.5481 C.3     1  UNL1        0.0066
     13 C         140.9578  140.2475  166.0286 C.3     1  UNL1        0.0049
     14 C         140.6909  140.7668  164.6469 C.3     1  UNL1        0.0275
     15 C         139.8189  139.7896  166.8908 C.3     1  UNL1        0.0053
     16 C         138.7307  138.9388  166.3062 C.3     1  UNL1        0.0322
     17 C         137.5918  138.4809  167.1684 C.3     1  UNL1        0.1422
     18 O         137.5412  138.8739  168.6152 O.3     1  UNL1       -0.3538
     19 C         138.6295  139.7247  169.1997 C.3     1  UNL1        0.1422
     20 C         139.7684  140.1826  168.3375 C.3     1  UNL1        0.0322
     21 N         139.7679  141.9249  157.9639 N.am    1  UNL1       -0.2743
     22 C         138.6883  142.2105  156.9624 C.3     1  UNL1        0.1152
     23 C         140.0686  142.9188  159.0463 C.2     1  UNL1        0.2491
     24 O         139.2899  144.1982  159.1273 O.2     1  UNL1       -0.2699
     25 C         140.5466  140.6455  157.8829 C.3     1  UNL1        0.0943
     26 C         140.0736  139.4313  158.6258 C.3     1  UNL1        0.0311
     27 C         138.9025  139.5312  159.5578 C.3     1  UNL1        0.0889
     28 N         140.1288  138.0482  161.3033 N.am    1  UNL1       -0.1932
     29 C         138.8794  138.7247  160.8224 C.2     1  UNL1        0.2446
     30 O         137.6070  138.5948  161.6059 O.2     1  UNL1       -0.2730
     31 H         140.9639  138.1335  160.7890 H       1  UNL1        0.1825
     32 C         141.2280  137.3634  163.5556 C.3     1  UNL1        0.2055
     33 O         140.1057  137.2417  162.5679 O.3     1  UNL1       -0.2636
@<TRIPOS>BOND
     1    32    33    1
     2    33    28    1
     3    28    29   am
     4    29    30    2
     5    29    27    1
     6    27    26    1
     7    26    25    1
     8    25    21    1
     9    21    22    1
    10    21    23   am
    11    23    24    2
    12    23     1    1
    13     1     2   ar
    14     2     3   ar
    15     3     4   ar
    16     4     5   ar
    17     5     6   ar
    18     5     7   ar
    19     7     8   ar
    20     8     9   ar
    21     9    10    1
    22     8    11    1
    23    11    12    1
    24    12    13    1
    25    13    15    1
    26    15    16    1
    27    16    17    1
    28    17    18    1
    29    18    19    1
    30    19    20    1
    31    13    14    1
    32     6     1   ar
    33    14     7    1
    34     9     4   ar
    35    20    15    1
    36    28    31    1
@<TRIPOS>MOLECULE
*****
 33 36 0 0 0
SMALL
GASTEIGER

@<TRIPOS>ATOM
      1 C         142.1451  140.9337  159.9466 C.ar    1  UNL1        0.0537
      2 C         141.6878  142.1358  159.1749 C.ar    1  UNL1        0.0060
      3 C         141.0390  143.2838  159.8898 C.ar    1  UNL1        0.0173
      4 C         140.8475  143.2297  161.3765 C.ar    1  UNL1        0.0594
      5 C         141.3048  142.0276  162.1483 C.ar    1  UNL1        0.0130
      6 C         141.9536  140.8795  161.4333 C.ar    1  UNL1        0.0057
      7 C         140.9848  142.2567  163.5958 C.ar    1  UNL1       -0.0091
      8 C         140.3297  143.6005  163.7185 C.ar    1  UNL1        0.0331
      9 N         140.2448  144.2018  162.3469 N.ar    1  UNL1       -0.3289
     10 C         139.6600  145.5403  162.0057 C.3     1  UNL1        0.1301
     11 C         139.8950  144.1029  165.0633 C.3     1  UNL1        0.0435
     12 C         140.1155  143.2615  166.2854 C.3     1  UNL1        0.0066
     13 C         140.7706  141.9178  166.1627 C.3     1  UNL1        0.0049
     14 C         141.2052  141.4154  164.8178 C.3     1  UNL1        0.0275
     15 C         140.9910  141.0764  167.3848 C.3     1  UNL1        0.0053
     16 C         139.9279  140.9931  168.4397 C.3     1  UNL1        0.0322
     17 C         140.1484  140.1517  169.6618 C.3     1  UNL1        0.1422
     18 O         141.4320  139.3937  169.8290 O.3     1  UNL1       -0.3538
     19 C         142.4951  139.4770  168.7740 C.3     1  UNL1        0.1422
     20 C         142.2746  140.3184  167.5519 C.3     1  UNL1        0.0322
     21 N         141.9579  138.8327  158.4298 N.am    1  UNL1       -0.2743
     22 C         142.6067  137.6847  157.7149 C.3     1  UNL1        0.1152
     23 C         142.7939  139.7856  159.2317 C.2     1  UNL1        0.2491
     24 O         144.2785  139.5906  159.3187 O.2     1  UNL1       -0.2699
     25 C         140.4732  139.0277  158.3428 C.3     1  UNL1        0.0943
     26 C         139.5790  138.4639  159.4070 C.3     1  UNL1        0.0311
     27 C         138.8057  139.3857  160.3028 C.3     1  UNL1        0.0889
     28 N         138.8792  139.4875  162.8977 N.am    1  UNL1       -0.1932
     29 C         138.3181  138.9015  161.6361 C.2     1  UNL1        0.2446
     30 O         137.2695  137.8314  161.7077 O.2     1  UNL1       -0.2730
     31 H         139.5675  140.1898  162.8507 H       1  UNL1        0.1825
     32 C         139.2861  138.1684  165.0988 C.3     1  UNL1        0.2055
     33 O         138.3916  139.0033  164.2311 O.3     1  UNL1       -0.2636
@<TRIPOS>BOND
     1    32    33    1
     2    33    28    1
     3    28    29   am
     4    29    30    2
     5    29    27    1
     6    27    26    1
     7    26    25    1
     8    25    21    1
     9    21    22    1
    10    21    23   am
    11    23    24    2
    12    23     1    1
    13     1     2   ar
    14     2     3   ar
    15     3     4   ar
    16     4     5   ar
    17     5     6   ar
    18     5     7   ar
    19     7     8   ar
    20     8     9   ar
    21     9    10    1
    22     8    11    1
    23    11    12    1
    24    12    13    1
    25    13    15    1
    26    15    16    1
    27    16    17    1
    28    17    18    1
    29    18    19    1
    30    19    20    1
    31    13    14    1
    32     6     1   ar
    33    14     7    1
    34     9     4   ar
    35    20    15    1
    36    28    31    1
