@<TRIPOS>MOLECULE
*****
 30 33 0 0 0
SMALL
GASTEIGER

@<TRIPOS>ATOM
      1 C         140.5398  143.5901  163.8478 C.ar    1  UNL1        0.1122
      2 N         140.6748  143.3371  162.3754 N.ar    1  UNL1       -0.2259
      3 C         139.6009  144.1126  161.6714 C.ar    1  UNL1        0.1412
      4 C         138.8023  144.8450  162.7088 C.ar    1  UNL1        0.0710
      5 S         139.3826  144.5221  164.0538 S.2     1  UNL1       -0.0670
      6 C         139.6433  140.2386  167.9967 C.3     1  UNL1        0.0320
      7 C         140.2320  141.1633  166.9728 C.3     1  UNL1        0.1155
      8 C         141.6902  141.5105  167.0261 C.3     1  UNL1        0.0328
      9 C         142.2789  142.4352  166.0022 C.3     1  UNL1        0.0426
     10 C         143.7373  142.7825  166.0555 C.3     1  UNL1        0.0673
     11 S         144.3260  143.7072  165.0316 S.3     1  UNL1       -0.0807
     12 C         143.4563  144.2846  163.9544 C.2     1  UNL1        0.1483
     13 N         144.0450  145.2093  162.9305 N.pl3   1  UNL1       -0.3380
     14 N         141.9981  143.9374  163.9011 N.2     1  UNL1       -0.2464
     15 C         141.4094  143.0127  164.9250 C.3     1  UNL1        0.1549
     16 C         139.9511  142.6654  164.8717 C.3     1  UNL1        0.1705
     17 O         139.3624  141.7407  165.8956 O.3     1  UNL1       -0.3538
     18 H         145.0021  145.4372  162.9655 H       1  UNL1        0.1442
     19 H         143.4743  145.5883  162.2235 H       1  UNL1        0.1442
     20 N         139.3668  144.1493  160.1903 N.am    1  UNL1       -0.2641
     21 C         140.4015  144.7444  159.2820 C.2     1  UNL1        0.2683
     22 O         141.6705  145.3028  159.8548 O.2     1  UNL1       -0.2681
     23 H         138.5340  143.7829  159.8143 H       1  UNL1        0.1566
     24 C         140.1674  144.7811  157.8008 C.ar    1  UNL1        0.1350
     25 C         140.5484  145.9982  157.0112 C.ar    1  UNL1        0.0261
     26 C         140.3143  146.0349  155.5301 C.ar    1  UNL1        0.0329
     27 C         139.6992  144.8546  154.8385 C.ar    1  UNL1        0.1592
     28 F         139.4651  144.8913  153.3574 F       1  UNL1       -0.2025
     29 C         139.3182  143.6375  155.6281 C.ar    1  UNL1        0.1285
     30 N         139.5523  143.6008  157.1092 N.ar    1  UNL1       -0.2369
@<TRIPOS>BOND
     1     7     6    1
     2     7     8    1
     3     9     8    1
     4     9    10    1
     5    10    11    1
     6    11    12    1
     7    12    13    1
     8    12    14    2
     9    14    15    1
    10    15     1    1
    11     1     2   ar
    12     2     3   ar
    13     3    20    1
    14    20    21   am
    15    21    22    2
    16    21    24    1
    17    24    25   ar
    18    25    26   ar
    19    26    27   ar
    20    27    28    1
    21    27    29   ar
    22    29    30   ar
    23     3     4   ar
    24     4     5   ar
    25    15    16    1
    26    16    17    1
    27    17     7    1
    28    15     9    1
    29     5     1   ar
    30    30    24   ar
    31    13    18    1
    32    13    19    1
    33    20    23    1
@<TRIPOS>MOLECULE
*****
 30 33 0 0 0
SMALL
GASTEIGER

@<TRIPOS>ATOM
      1 C         139.9735  142.9358  164.0196 C.ar    1  UNL1        0.1122
      2 N         140.3322  142.9692  162.5635 N.ar    1  UNL1       -0.2259
      3 C         139.5684  144.0907  161.9236 C.ar    1  UNL1        0.1412
      4 C         138.7378  144.7502  162.9844 C.ar    1  UNL1        0.0710
      5 S         138.9882  144.0365  164.2797 S.2     1  UNL1       -0.0670
      6 C         137.8506  138.7255  166.6684 C.3     1  UNL1        0.0320
      7 C         138.7359  139.8073  166.1246 C.3     1  UNL1        0.1155
      8 C         140.1544  139.9245  166.5981 C.3     1  UNL1        0.0328
      9 C         141.0397  141.0063  166.0543 C.3     1  UNL1        0.0426
     10 C         142.4582  141.1234  166.5279 C.3     1  UNL1        0.0673
     11 S         143.3436  142.2053  165.9841 S.3     1  UNL1       -0.0807
     12 C         142.8104  143.1700  164.9666 C.2     1  UNL1        0.1483
     13 N         143.6958  144.2519  164.4228 N.pl3   1  UNL1       -0.3380
     14 N         141.3920  143.0529  164.4931 N.2     1  UNL1       -0.2464
     15 C         140.5066  141.9710  165.0370 C.3     1  UNL1        0.1549
     16 C         139.0882  141.8539  164.5634 C.3     1  UNL1        0.1705
     17 O         138.2029  140.7721  165.1073 O.3     1  UNL1       -0.3538
     18 H         144.6267  144.3288  164.7336 H       1  UNL1        0.1442
     19 H         143.3458  144.8851  163.7551 H       1  UNL1        0.1442
     20 N         139.6253  144.4835  160.4771 N.am    1  UNL1       -0.2641
     21 C         140.9366  144.8584  159.8528 C.2     1  UNL1        0.2683
     22 O         142.1911  144.8406  160.6751 O.2     1  UNL1       -0.2681
     23 H         138.8020  144.4952  159.9374 H       1  UNL1        0.1566
     24 C         140.9935  145.2513  158.4063 C.ar    1  UNL1        0.1350
     25 C         142.1106  144.7539  157.5375 C.ar    1  UNL1        0.0261
     26 C         142.1675  145.1467  156.0909 C.ar    1  UNL1        0.0329
     27 C         141.1074  146.0369  155.5132 C.ar    1  UNL1        0.1592
     28 F         141.1643  146.4297  154.0667 F       1  UNL1       -0.2025
     29 C         139.9904  146.5343  156.3821 C.ar    1  UNL1        0.1285
     30 N         139.9335  146.1414  157.8286 N.ar    1  UNL1       -0.2369
@<TRIPOS>BOND
     1     7     6    1
     2     7     8    1
     3     9     8    1
     4     9    10    1
     5    10    11    1
     6    11    12    1
     7    12    13    1
     8    12    14    2
     9    14    15    1
    10    15     1    1
    11     1     2   ar
    12     2     3   ar
    13     3    20    1
    14    20    21   am
    15    21    22    2
    16    21    24    1
    17    24    25   ar
    18    25    26   ar
    19    26    27   ar
    20    27    28    1
    21    27    29   ar
    22    29    30   ar
    23     3     4   ar
    24     4     5   ar
    25    15    16    1
    26    16    17    1
    27    17     7    1
    28    15     9    1
    29     5     1   ar
    30    30    24   ar
    31    13    18    1
    32    13    19    1
    33    20    23    1
@<TRIPOS>MOLECULE
*****
 30 33 0 0 0
SMALL
GASTEIGER

@<TRIPOS>ATOM
      1 C         142.0671  142.7355  163.3823 C.ar    1  UNL1        0.1122
      2 N         142.0089  142.9186  161.8946 N.ar    1  UNL1       -0.2259
      3 C         141.9503  144.3904  161.6106 C.ar    1  UNL1        0.1412
      4 C         141.9722  145.1169  162.9228 C.ar    1  UNL1        0.0710
      5 S         142.0445  144.0942  164.0177 S.2     1  UNL1       -0.0670
      6 C         138.3900  139.5848  165.7908 C.3     1  UNL1        0.0320
      7 C         139.6386  140.1979  165.2296 C.3     1  UNL1        0.1155
      8 C         140.9560  139.4997  165.3934 C.3     1  UNL1        0.0328
      9 C         142.2047  140.1129  164.8322 C.3     1  UNL1        0.0426
     10 C         143.5222  139.4146  164.9960 C.3     1  UNL1        0.0673
     11 S         144.7708  140.0278  164.4348 S.3     1  UNL1       -0.0807
     12 C         144.7020  141.3392  163.7098 C.2     1  UNL1        0.1483
     13 N         145.9506  141.9523  163.1487 N.pl3   1  UNL1       -0.3380
     14 N         143.3845  142.0374  163.5461 N.2     1  UNL1       -0.2464
     15 C         142.1359  141.4242  164.1073 C.3     1  UNL1        0.1549
     16 C         140.8185  142.1224  163.9435 C.3     1  UNL1        0.1705
     17 O         139.5698  141.5092  164.5047 O.3     1  UNL1       -0.3538
     18 H         146.8153  141.4941  163.2561 H       1  UNL1        0.1442
     19 H         145.9054  142.8130  162.6728 H       1  UNL1        0.1442
     20 N         141.8817  145.0242  160.2528 N.am    1  UNL1       -0.2641
     21 C         140.6411  144.8840  159.4215 C.2     1  UNL1        0.2683
     22 O         139.4691  144.1098  159.9479 O.2     1  UNL1       -0.2681
     23 H         142.6509  145.5323  159.9074 H       1  UNL1        0.1566
     24 C         140.5726  145.5179  158.0638 C.ar    1  UNL1        0.1350
     25 C         141.5473  145.1142  156.9975 C.ar    1  UNL1        0.0261
     26 C         141.4787  145.7481  155.6397 C.ar    1  UNL1        0.0329
     27 C         140.4355  146.7856  155.3482 C.ar    1  UNL1        0.1592
     28 F         140.3669  147.4195  153.9905 F       1  UNL1       -0.2025
     29 C         139.4607  147.1893  156.4145 C.ar    1  UNL1        0.1285
     30 N         139.5293  146.5554  157.7722 N.ar    1  UNL1       -0.2369
@<TRIPOS>BOND
     1     7     6    1
     2     7     8    1
     3     9     8    1
     4     9    10    1
     5    10    11    1
     6    11    12    1
     7    12    13    1
     8    12    14    2
     9    14    15    1
    10    15     1    1
    11     1     2   ar
    12     2     3   ar
    13     3    20    1
    14    20    21   am
    15    21    22    2
    16    21    24    1
    17    24    25   ar
    18    25    26   ar
    19    26    27   ar
    20    27    28    1
    21    27    29   ar
    22    29    30   ar
    23     3     4   ar
    24     4     5   ar
    25    15    16    1
    26    16    17    1
    27    17     7    1
    28    15     9    1
    29     5     1   ar
    30    30    24   ar
    31    13    18    1
    32    13    19    1
    33    20    23    1
@<TRIPOS>MOLECULE
*****
 30 33 0 0 0
SMALL
GASTEIGER

@<TRIPOS>ATOM
      1 C         138.9415  142.2214  164.1616 C.ar    1  UNL1        0.1122
      2 N         139.5481  142.2483  162.7899 N.ar    1  UNL1       -0.2259
      3 C         138.8732  143.3346  162.0058 C.ar    1  UNL1        0.1412
      4 C         137.8495  143.9790  162.8930 C.ar    1  UNL1        0.0710
      5 S         137.8918  143.2911  164.2252 S.2     1  UNL1       -0.0670
      6 C         140.9965  142.9287  169.1140 C.3     1  UNL1        0.0320
      7 C         140.4372  142.3820  167.8340 C.3     1  UNL1        0.1155
      8 C         140.2548  140.9026  167.6667 C.3     1  UNL1        0.0328
      9 C         139.6955  140.3560  166.3867 C.3     1  UNL1        0.0426
     10 C         139.5131  138.8765  166.2194 C.3     1  UNL1        0.0673
     11 S         138.9538  138.3298  164.9394 S.3     1  UNL1       -0.0807
     12 C         138.5768  139.2626  163.8268 C.2     1  UNL1        0.1483
     13 N         138.0174  138.7159  162.5469 N.pl3   1  UNL1       -0.3380
     14 N         138.7592  140.7420  163.9942 N.2     1  UNL1       -0.2464
     15 C         139.3185  141.2887  165.2741 C.3     1  UNL1        0.1549
     16 C         139.5009  142.7681  165.4415 C.3     1  UNL1        0.1705
     17 O         140.0602  143.3148  166.7215 O.3     1  UNL1       -0.3538
     18 H         137.8977  137.7449  162.4370 H       1  UNL1        0.1442
     19 H         137.7700  139.3281  161.8166 H       1  UNL1        0.1442
     20 N         139.1699  143.7105  160.5843 N.am    1  UNL1       -0.2641
     21 C         140.4180  144.4746  160.2555 C.2     1  UNL1        0.2683
     22 O         141.3694  144.8630  161.3482 O.2     1  UNL1       -0.2681
     23 H         138.5454  143.4556  159.8672 H       1  UNL1        0.1566
     24 C         140.7147  144.8505  158.8340 C.ar    1  UNL1        0.1350
     25 C         139.7923  144.4138  157.7346 C.ar    1  UNL1        0.0261
     26 C         140.0890  144.7896  156.3131 C.ar    1  UNL1        0.0329
     27 C         141.3080  145.6021  155.9909 C.ar    1  UNL1        0.1592
     28 F         141.6047  145.9780  154.5694 F       1  UNL1       -0.2025
     29 C         142.2303  146.0388  157.0903 C.ar    1  UNL1        0.1285
     30 N         141.9336  145.6630  158.5118 N.ar    1  UNL1       -0.2369
@<TRIPOS>BOND
     1     7     6    1
     2     7     8    1
     3     9     8    1
     4     9    10    1
     5    10    11    1
     6    11    12    1
     7    12    13    1
     8    12    14    2
     9    14    15    1
    10    15     1    1
    11     1     2   ar
    12     2     3   ar
    13     3    20    1
    14    20    21   am
    15    21    22    2
    16    21    24    1
    17    24    25   ar
    18    25    26   ar
    19    26    27   ar
    20    27    28    1
    21    27    29   ar
    22    29    30   ar
    23     3     4   ar
    24     4     5   ar
    25    15    16    1
    26    16    17    1
    27    17     7    1
    28    15     9    1
    29     5     1   ar
    30    30    24   ar
    31    13    18    1
    32    13    19    1
    33    20    23    1
@<TRIPOS>MOLECULE
*****
 30 33 0 0 0
SMALL
GASTEIGER

@<TRIPOS>ATOM
      1 C         140.6167  142.7230  162.8088 C.ar    1  UNL1        0.1122
      2 N         140.3155  142.9605  161.3586 N.ar    1  UNL1       -0.2259
      3 C         140.1202  144.4347  161.1611 C.ar    1  UNL1        0.1412
      4 C         140.3007  145.1082  162.4892 C.ar    1  UNL1        0.0710
      5 S         140.6076  144.0504  163.5075 S.2     1  UNL1       -0.0670
      6 C         145.1122  140.0458  164.1774 C.3     1  UNL1        0.0320
      7 C         143.7017  140.4945  163.9343 C.3     1  UNL1        0.1155
      8 C         142.5551  139.6122  164.3303 C.3     1  UNL1        0.0328
      9 C         141.1446  140.0609  164.0871 C.3     1  UNL1        0.0426
     10 C         139.9980  139.1785  164.4831 C.3     1  UNL1        0.0673
     11 S         138.5875  139.6272  164.2399 S.3     1  UNL1       -0.0807
     12 C         138.3236  140.9583  163.6007 C.2     1  UNL1        0.1483
     13 N         136.9131  141.4070  163.3575 N.pl3   1  UNL1       -0.3380
     14 N         139.4702  141.8407  163.2047 N.2     1  UNL1       -0.2464
     15 C         140.8807  141.3920  163.4479 C.3     1  UNL1        0.1549
     16 C         142.0272  142.2743  163.0519 C.3     1  UNL1        0.1705
     17 O         143.4377  141.8256  163.2951 O.3     1  UNL1       -0.3538
     18 H         136.1606  140.8279  163.6175 H       1  UNL1        0.1442
     19 H         136.7399  142.2806  162.9380 H       1  UNL1        0.1442
     20 N         139.8006  145.1157  159.8634 N.am    1  UNL1       -0.2641
     21 C         140.8670  145.2840  158.8222 C.2     1  UNL1        0.2683
     22 O         142.2532  144.7714  159.0787 O.2     1  UNL1       -0.2681
     23 H         138.8908  145.4521  159.6951 H       1  UNL1        0.1566
     24 C         140.5474  145.9650  157.5245 C.ar    1  UNL1        0.1350
     25 C         141.3844  145.6945  156.3095 C.ar    1  UNL1        0.0261
     26 C         141.0647  146.3755  155.0117 C.ar    1  UNL1        0.0329
     27 C         139.9082  147.3270  154.9290 C.ar    1  UNL1        0.1592
     28 F         139.5885  148.0079  153.6313 F       1  UNL1       -0.2025
     29 C         139.0712  147.5975  156.1440 C.ar    1  UNL1        0.1285
     30 N         139.3908  146.9165  157.4418 N.ar    1  UNL1       -0.2369
@<TRIPOS>BOND
     1     7     6    1
     2     7     8    1
     3     9     8    1
     4     9    10    1
     5    10    11    1
     6    11    12    1
     7    12    13    1
     8    12    14    2
     9    14    15    1
    10    15     1    1
    11     1     2   ar
    12     2     3   ar
    13     3    20    1
    14    20    21   am
    15    21    22    2
    16    21    24    1
    17    24    25   ar
    18    25    26   ar
    19    26    27   ar
    20    27    28    1
    21    27    29   ar
    22    29    30   ar
    23     3     4   ar
    24     4     5   ar
    25    15    16    1
    26    16    17    1
    27    17     7    1
    28    15     9    1
    29     5     1   ar
    30    30    24   ar
    31    13    18    1
    32    13    19    1
    33    20    23    1
@<TRIPOS>MOLECULE
*****
 30 33 0 0 0
SMALL
GASTEIGER

@<TRIPOS>ATOM
      1 C         142.7822  143.6717  161.7040 C.ar    1  UNL1        0.1122
      2 N         142.0223  142.7574  162.6187 N.ar    1  UNL1       -0.2259
      3 C         142.5549  142.9445  164.0085 C.ar    1  UNL1        0.1412
      4 C         143.6440  143.9745  163.9527 C.ar    1  UNL1        0.0710
      5 S         143.7845  144.4239  162.5286 S.2     1  UNL1       -0.0670
      6 C         145.3828  141.7661  157.3617 C.3     1  UNL1        0.0320
      7 C         144.4472  142.4473  158.3160 C.3     1  UNL1        0.1155
      8 C         143.3056  143.2664  157.7911 C.3     1  UNL1        0.0328
      9 C         142.3700  143.9476  158.7454 C.3     1  UNL1        0.0426
     10 C         141.2283  144.7667  158.2203 C.3     1  UNL1        0.0673
     11 S         140.2928  145.4479  159.1747 S.3     1  UNL1       -0.0807
     12 C         140.4989  145.3099  160.6541 C.2     1  UNL1        0.1483
     13 N         139.5634  145.9911  161.6084 N.pl3   1  UNL1       -0.3380
     14 N         141.6406  144.4908  161.1791 N.2     1  UNL1       -0.2464
     15 C         142.5761  143.8096  160.2247 C.3     1  UNL1        0.1549
     16 C         143.7178  142.9905  160.7497 C.3     1  UNL1        0.1705
     17 O         144.6533  142.3094  159.7954 O.3     1  UNL1       -0.3538
     18 H         138.8140  146.5287  161.2638 H       1  UNL1        0.1442
     19 H         139.6987  145.9005  162.5794 H       1  UNL1        0.1442
     20 N         142.0815  142.2275  165.2381 N.am    1  UNL1       -0.2641
     21 C         140.8313  142.6773  165.9339 C.2     1  UNL1        0.2683
     22 O         140.0543  143.8442  165.4002 O.2     1  UNL1       -0.2681
     23 H         142.5915  141.4617  165.5883 H       1  UNL1        0.1566
     24 C         140.3579  141.9604  167.1635 C.ar    1  UNL1        0.1350
     25 C         139.7442  140.5966  167.0470 C.ar    1  UNL1        0.0261
     26 C         139.2708  139.8796  168.2765 C.ar    1  UNL1        0.0329
     27 C         139.4111  140.5263  169.6226 C.ar    1  UNL1        0.1592
     28 F         138.9377  139.8094  170.8522 F       1  UNL1       -0.2025
     29 C         140.0248  141.8901  169.7391 C.ar    1  UNL1        0.1285
     30 N         140.4982  142.6071  168.5096 N.ar    1  UNL1       -0.2369
@<TRIPOS>BOND
     1     7     6    1
     2     7     8    1
     3     9     8    1
     4     9    10    1
     5    10    11    1
     6    11    12    1
     7    12    13    1
     8    12    14    2
     9    14    15    1
    10    15     1    1
    11     1     2   ar
    12     2     3   ar
    13     3    20    1
    14    20    21   am
    15    21    22    2
    16    21    24    1
    17    24    25   ar
    18    25    26   ar
    19    26    27   ar
    20    27    28    1
    21    27    29   ar
    22    29    30   ar
    23     3     4   ar
    24     4     5   ar
    25    15    16    1
    26    16    17    1
    27    17     7    1
    28    15     9    1
    29     5     1   ar
    30    30    24   ar
    31    13    18    1
    32    13    19    1
    33    20    23    1
@<TRIPOS>MOLECULE
*****
 30 33 0 0 0
SMALL
GASTEIGER

@<TRIPOS>ATOM
      1 C         138.9755  143.2006  162.0929 C.ar    1  UNL1        0.1122
      2 N         139.8879  142.6778  163.1626 N.ar    1  UNL1       -0.2259
      3 C         139.4219  143.2270  164.4785 C.ar    1  UNL1        0.1412
      4 C         138.2215  144.0892  164.2219 C.ar    1  UNL1        0.0710
      5 S         137.9456  144.0729  162.7476 S.2     1  UNL1       -0.0670
      6 C         140.9021  145.9257  157.8370 C.3     1  UNL1        0.0320
      7 C         140.2932  144.9182  158.7667 C.3     1  UNL1        0.1155
      8 C         139.7842  143.6135  158.2296 C.3     1  UNL1        0.0328
      9 C         139.1753  142.6060  159.1592 C.3     1  UNL1        0.0426
     10 C         138.6663  141.3013  158.6220 C.3     1  UNL1        0.0673
     11 S         138.0574  140.2938  159.5517 S.3     1  UNL1       -0.0807
     12 C         137.9575  140.5912  161.0186 C.2     1  UNL1        0.1483
     13 N         137.3486  139.5837  161.9483 N.pl3   1  UNL1       -0.3380
     14 N         138.4665  141.8959  161.5557 N.2     1  UNL1       -0.2464
     15 C         139.0754  142.9033  160.6261 C.3     1  UNL1        0.1549
     16 C         139.5844  144.2081  161.1632 C.3     1  UNL1        0.1705
     17 O         140.1933  145.2155  160.2335 O.3     1  UNL1       -0.3538
     18 H         137.0145  138.7274  161.5957 H       1  UNL1        0.1442
     19 H         137.2830  139.7788  162.9110 H       1  UNL1        0.1442
     20 N         140.0466  142.9608  165.8159 N.am    1  UNL1       -0.2641
     21 C         139.8555  141.6302  166.4814 C.2     1  UNL1        0.2683
     22 O         139.0397  140.5658  165.8093 O.2     1  UNL1       -0.2681
     23 H         140.5820  143.6594  166.2570 H       1  UNL1        0.1566
     24 C         140.4802  141.3640  167.8189 C.ar    1  UNL1        0.1350
     25 C         139.9356  140.2775  168.6981 C.ar    1  UNL1        0.0261
     26 C         140.5603  140.0112  170.0355 C.ar    1  UNL1        0.0329
     27 C         141.7295  140.8314  170.4939 C.ar    1  UNL1        0.1592
     28 F         142.3542  140.5652  171.8313 F       1  UNL1       -0.2025
     29 C         142.2741  141.9179  169.6146 C.ar    1  UNL1        0.1285
     30 N         141.6494  142.1842  168.2772 N.ar    1  UNL1       -0.2369
@<TRIPOS>BOND
     1     7     6    1
     2     7     8    1
     3     9     8    1
     4     9    10    1
     5    10    11    1
     6    11    12    1
     7    12    13    1
     8    12    14    2
     9    14    15    1
    10    15     1    1
    11     1     2   ar
    12     2     3   ar
    13     3    20    1
    14    20    21   am
    15    21    22    2
    16    21    24    1
    17    24    25   ar
    18    25    26   ar
    19    26    27   ar
    20    27    28    1
    21    27    29   ar
    22    29    30   ar
    23     3     4   ar
    24     4     5   ar
    25    15    16    1
    26    16    17    1
    27    17     7    1
    28    15     9    1
    29     5     1   ar
    30    30    24   ar
    31    13    18    1
    32    13    19    1
    33    20    23    1
@<TRIPOS>MOLECULE
*****
 30 33 0 0 0
SMALL
GASTEIGER

@<TRIPOS>ATOM
      1 C         142.8495  142.2860  165.2003 C.ar    1  UNL1        0.1122
      2 N         141.9814  142.6392  164.0291 N.ar    1  UNL1       -0.2259
      3 C         142.6140  143.7972  163.3157 C.ar    1  UNL1        0.1412
      4 C         143.8731  144.1597  164.0461 C.ar    1  UNL1        0.0710
      5 S         144.0186  143.2258  165.2108 S.2     1  UNL1       -0.0670
      6 C         139.8865  141.9090  169.7090 C.3     1  UNL1        0.0320
      7 C         140.7888  141.6681  168.5352 C.3     1  UNL1        0.1155
      8 C         141.4351  140.3274  168.3488 C.3     1  UNL1        0.0328
      9 C         142.3374  140.0864  167.1750 C.3     1  UNL1        0.0426
     10 C         142.9836  138.7456  166.9885 C.3     1  UNL1        0.0673
     11 S         143.8859  138.5047  165.8148 S.3     1  UNL1       -0.0807
     12 C         144.1420  139.6046  164.8274 C.2     1  UNL1        0.1483
     13 N         145.0443  139.3637  163.6536 N.pl3   1  UNL1       -0.3380
     14 N         143.4957  140.9453  165.0138 N.2     1  UNL1       -0.2464
     15 C         142.5934  141.1862  166.1876 C.3     1  UNL1        0.1549
     16 C         141.9472  142.5269  166.3741 C.3     1  UNL1        0.1705
     17 O         141.0448  142.7678  167.5479 O.3     1  UNL1       -0.3538
     18 H         145.4685  138.4837  163.5312 H       1  UNL1        0.1442
     19 H         145.2123  140.0855  163.0056 H       1  UNL1        0.1442
     20 N         142.0812  144.4739  162.0876 N.am    1  UNL1       -0.2641
     21 C         142.3821  143.9104  160.7305 C.2     1  UNL1        0.2683
     22 O         143.2160  142.6702  160.6015 O.2     1  UNL1       -0.2681
     23 H         141.5339  145.2879  162.1724 H       1  UNL1        0.1566
     24 C         141.8492  144.5871  159.5025 C.ar    1  UNL1        0.1350
     25 C         140.4923  145.2260  159.5272 C.ar    1  UNL1        0.0261
     26 C         139.9595  145.9027  158.2992 C.ar    1  UNL1        0.0329
     27 C         140.7834  145.9405  157.0464 C.ar    1  UNL1        0.1592
     28 F         140.2505  146.6171  155.8183 F       1  UNL1       -0.2025
     29 C         142.1403  145.3015  157.0216 C.ar    1  UNL1        0.1285
     30 N         142.6732  144.6248  158.2497 N.ar    1  UNL1       -0.2369
@<TRIPOS>BOND
     1     7     6    1
     2     7     8    1
     3     9     8    1
     4     9    10    1
     5    10    11    1
     6    11    12    1
     7    12    13    1
     8    12    14    2
     9    14    15    1
    10    15     1    1
    11     1     2   ar
    12     2     3   ar
    13     3    20    1
    14    20    21   am
    15    21    22    2
    16    21    24    1
    17    24    25   ar
    18    25    26   ar
    19    26    27   ar
    20    27    28    1
    21    27    29   ar
    22    29    30   ar
    23     3     4   ar
    24     4     5   ar
    25    15    16    1
    26    16    17    1
    27    17     7    1
    28    15     9    1
    29     5     1   ar
    30    30    24   ar
    31    13    18    1
    32    13    19    1
    33    20    23    1
@<TRIPOS>MOLECULE
*****
 30 33 0 0 0
SMALL
GASTEIGER

@<TRIPOS>ATOM
      1 C         141.5582  142.4264  162.9236 C.ar    1  UNL1        0.1122
      2 N         142.1178  141.8835  161.6421 N.ar    1  UNL1       -0.2259
      3 C         143.5288  142.3747  161.5076 C.ar    1  UNL1        0.1412
      4 C         143.8412  143.2211  162.7060 C.ar    1  UNL1        0.0710
      5 S         142.6233  143.2530  163.5811 S.2     1  UNL1       -0.0670
      6 C         139.0139  138.0946  164.9266 C.3     1  UNL1        0.0320
      7 C         139.4013  139.4580  164.4358 C.3     1  UNL1        0.1155
      8 C         138.4068  140.5801  164.4759 C.3     1  UNL1        0.0328
      9 C         138.7942  141.9436  163.9852 C.3     1  UNL1        0.0426
     10 C         137.7995  143.0658  164.0253 C.3     1  UNL1        0.0673
     11 S         138.1869  144.4293  163.5345 S.3     1  UNL1       -0.0807
     12 C         139.5690  144.6706  163.0037 C.2     1  UNL1        0.1483
     13 N         139.9565  146.0341  162.5130 N.pl3   1  UNL1       -0.3380
     14 N         140.5636  143.5485  162.9637 N.2     1  UNL1       -0.2464
     15 C         140.1762  142.1850  163.4544 C.3     1  UNL1        0.1549
     16 C         141.1707  141.0629  163.4143 C.3     1  UNL1        0.1705
     17 O         140.7833  139.6994  163.9051 O.3     1  UNL1       -0.3538
     18 H         139.3037  146.7706  162.5393 H       1  UNL1        0.1442
     19 H         140.8635  146.1925  162.1646 H       1  UNL1        0.1442
     20 N         144.4632  142.0725  160.3738 N.am    1  UNL1       -0.2641
     21 C         144.2816  142.7542  159.0502 C.2     1  UNL1        0.2683
     22 O         143.1654  143.7383  158.8603 O.2     1  UNL1       -0.2681
     23 H         145.1958  141.4266  160.4985 H       1  UNL1        0.1566
     24 C         145.2160  142.4520  157.9164 C.ar    1  UNL1        0.1350
     25 C         144.7273  141.6793  156.7273 C.ar    1  UNL1        0.0261
     26 C         145.6617  141.3771  155.5935 C.ar    1  UNL1        0.0329
     27 C         147.0849  141.8476  155.6488 C.ar    1  UNL1        0.1592
     28 F         148.0193  141.5454  154.5150 F       1  UNL1       -0.2025
     29 C         147.5736  142.6204  156.8379 C.ar    1  UNL1        0.1285
     30 N         146.6392  142.9226  157.9717 N.ar    1  UNL1       -0.2369
@<TRIPOS>BOND
     1     7     6    1
     2     7     8    1
     3     9     8    1
     4     9    10    1
     5    10    11    1
     6    11    12    1
     7    12    13    1
     8    12    14    2
     9    14    15    1
    10    15     1    1
    11     1     2   ar
    12     2     3   ar
    13     3    20    1
    14    20    21   am
    15    21    22    2
    16    21    24    1
    17    24    25   ar
    18    25    26   ar
    19    26    27   ar
    20    27    28    1
    21    27    29   ar
    22    29    30   ar
    23     3     4   ar
    24     4     5   ar
    25    15    16    1
    26    16    17    1
    27    17     7    1
    28    15     9    1
    29     5     1   ar
    30    30    24   ar
    31    13    18    1
    32    13    19    1
    33    20    23    1
