@<TRIPOS>MOLECULE
*****
 27 30 0 0 0
SMALL
GASTEIGER

@<TRIPOS>ATOM
      1 C         142.3434  143.2558  170.3431 C.3     1  UNL1        0.0307
      2 C         141.9765  142.3363  169.2163 C.ar    1  UNL1       -0.0242
      3 C         142.9128  142.1587  168.0580 C.ar    1  UNL1        0.0161
      4 C         142.5460  141.2392  166.9311 C.ar    1  UNL1        0.0983
      5 N         143.2615  140.8661  165.6666 N.ar    1  UNL1       -0.2268
      6 C         142.4005  139.8934  164.9166 C.ar    1  UNL1        0.1438
      7 N         141.1528  139.6654  165.7175 N.ar    1  UNL1       -0.3072
      8 C         141.2428  140.4971  166.9626 C.ar    1  UNL1        0.0788
      9 C         140.3065  140.6746  168.1209 C.ar    1  UNL1        0.0142
     10 C         140.6733  141.5942  169.2477 C.ar    1  UNL1       -0.0243
     11 C         139.7369  141.7717  170.4061 C.3     1  UNL1        0.0307
     12 C         142.7292  139.2600  163.5972 C.2     1  UNL1        0.0325
     13 C         142.3542  139.9505  162.3195 C.2     1  UNL1       -0.0219
     14 C         142.6830  139.3170  161.0002 C.3     1  UNL1        0.0392
     15 C         142.2196  137.9706  160.5288 C.3     1  UNL1        0.0228
     16 C         142.7831  137.7403  159.1579 C.3     1  UNL1        0.0689
     17 N         143.5948  138.9443  158.7821 N.3     1  UNL1       -0.2972
     18 C         143.5330  139.9189  159.9207 C.3     1  UNL1        0.0730
     19 H         143.2104  139.3716  157.9394 H       1  UNL1        0.1233
     20 C         140.0150  138.7639  165.3398 C.3     1  UNL1        0.1342
     21 C         139.2662  138.9969  164.0611 C.ar    1  UNL1        0.0005
     22 C         139.2435  137.9357  163.0012 C.ar    1  UNL1       -0.0015
     23 C         138.4947  138.1686  161.7225 C.ar    1  UNL1        0.0111
     24 C         137.7685  139.4627  161.5037 C.ar    1  UNL1        0.0577
     25 CL        137.0196  139.6956  160.2251 Cl      1  UNL1       -0.0822
     26 C         137.7911  140.5239  162.5636 C.ar    1  UNL1        0.0111
     27 C         138.5399  140.2910  163.8423 C.ar    1  UNL1       -0.0015
@<TRIPOS>BOND
     1     1     2    1
     2     2     3   ar
     3     3     4   ar
     4     4     5   ar
     5     5     6   ar
     6     6    12    1
     7    12    13    2
     8    13    14    1
     9    14    15    1
    10    15    16    1
    11    16    17    1
    12    17    18    1
    13     6     7   ar
    14     7    20    1
    15    20    21    1
    16    21    22   ar
    17    22    23   ar
    18    23    24   ar
    19    24    25    1
    20    24    26   ar
    21    26    27   ar
    22     7     8   ar
    23     8     9   ar
    24     9    10   ar
    25    10    11    1
    26    10     2   ar
    27     8     4   ar
    28    18    14    1
    29    27    21   ar
    30    17    19    1
@<TRIPOS>MOLECULE
*****
 27 30 0 0 0
SMALL
GASTEIGER

@<TRIPOS>ATOM
      1 C         142.2335  139.5223  169.5469 C.3     1  UNL1        0.0307
      2 C         142.6206  140.0888  168.2130 C.ar    1  UNL1       -0.0242
      3 C         142.7921  139.1788  167.0329 C.ar    1  UNL1        0.0161
      4 C         143.1793  139.7453  165.6991 C.ar    1  UNL1        0.0983
      5 N         143.4193  139.1003  164.3662 N.ar    1  UNL1       -0.2268
      6 C         143.7834  140.1782  163.3886 C.ar    1  UNL1        0.1438
      7 N         143.7683  141.4892  164.1173 N.ar    1  UNL1       -0.3072
      8 C         143.3950  141.2217  165.5452 C.ar    1  UNL1        0.0788
      9 C         143.2235  142.1316  166.7253 C.ar    1  UNL1        0.0142
     10 C         142.8363  141.5651  168.0592 C.ar    1  UNL1       -0.0243
     11 C         142.6649  142.4752  169.2392 C.3     1  UNL1        0.0307
     12 C         144.1060  139.9799  161.9371 C.2     1  UNL1        0.0325
     13 C         143.0297  140.1270  160.9028 C.2     1  UNL1       -0.0219
     14 C         143.3523  139.9287  159.4514 C.3     1  UNL1        0.0392
     15 C         144.0729  140.9028  158.5673 C.3     1  UNL1        0.0228
     16 C         144.1768  140.2976  157.1987 C.3     1  UNL1        0.0689
     17 N         143.5204  138.9494  157.2371 N.3     1  UNL1       -0.2972
     18 C         143.0107  138.7214  158.6293 C.3     1  UNL1        0.0730
     19 H         144.1985  138.2273  156.9941 H       1  UNL1        0.1233
     20 C         144.0731  142.8321  163.5225 C.3     1  UNL1        0.1342
     21 C         142.9559  143.7132  163.0478 C.ar    1  UNL1        0.0005
     22 C         142.5972  143.7507  161.5918 C.ar    1  UNL1       -0.0015
     23 C         141.4799  144.6318  161.1170 C.ar    1  UNL1        0.0111
     24 C         140.7214  145.4755  162.0982 C.ar    1  UNL1        0.0577
     25 CL        139.6042  146.3567  161.6235 Cl      1  UNL1       -0.0822
     26 C         141.0801  145.4381  163.5542 C.ar    1  UNL1        0.0111
     27 C         142.1974  144.5569  164.0290 C.ar    1  UNL1       -0.0015
@<TRIPOS>BOND
     1     1     2    1
     2     2     3   ar
     3     3     4   ar
     4     4     5   ar
     5     5     6   ar
     6     6    12    1
     7    12    13    2
     8    13    14    1
     9    14    15    1
    10    15    16    1
    11    16    17    1
    12    17    18    1
    13     6     7   ar
    14     7    20    1
    15    20    21    1
    16    21    22   ar
    17    22    23   ar
    18    23    24   ar
    19    24    25    1
    20    24    26   ar
    21    26    27   ar
    22     7     8   ar
    23     8     9   ar
    24     9    10   ar
    25    10    11    1
    26    10     2   ar
    27     8     4   ar
    28    18    14    1
    29    27    21   ar
    30    17    19    1
@<TRIPOS>MOLECULE
*****
 27 30 0 0 0
SMALL
GASTEIGER

@<TRIPOS>ATOM
      1 C         137.7092  138.4461  166.9515 C.3     1  UNL1        0.0307
      2 C         138.8845  138.6006  166.0324 C.ar    1  UNL1       -0.0242
      3 C         138.8855  137.9208  164.6953 C.ar    1  UNL1        0.0161
      4 C         140.0608  138.0752  163.7762 C.ar    1  UNL1        0.0983
      5 N         140.3437  137.5289  162.4081 N.ar    1  UNL1       -0.2268
      6 C         141.6930  138.0256  161.9806 C.ar    1  UNL1        0.1438
      7 N         142.2439  138.8789  163.0845 N.ar    1  UNL1       -0.3072
      8 C         141.2352  138.9095  164.1942 C.ar    1  UNL1        0.0788
      9 C         141.2342  139.5893  165.5313 C.ar    1  UNL1        0.0142
     10 C         140.0589  139.4349  166.4504 C.ar    1  UNL1       -0.0243
     11 C         140.0580  140.1147  167.7875 C.3     1  UNL1        0.0307
     12 C         142.3722  137.7223  160.6780 C.2     1  UNL1        0.0325
     13 C         141.9490  138.4349  159.4278 C.2     1  UNL1       -0.0219
     14 C         142.6281  138.1316  158.1252 C.3     1  UNL1        0.0392
     15 C         142.6667  136.7975  157.4407 C.3     1  UNL1        0.0228
     16 C         143.4503  136.9505  156.1709 C.3     1  UNL1        0.0689
     17 N         143.8961  138.3792  156.0706 N.3     1  UNL1       -0.2972
     18 C         143.3880  139.1092  157.2785 C.3     1  UNL1        0.0730
     19 H         143.5146  138.8023  155.2246 H       1  UNL1        0.1233
     20 C         143.5707  139.5786  163.0795 C.3     1  UNL1        0.1342
     21 C         143.6439  141.0497  163.3631 C.ar    1  UNL1        0.0005
     22 C         144.4088  141.5469  164.5538 C.ar    1  UNL1       -0.0015
     23 C         144.4820  143.0180  164.8374 C.ar    1  UNL1        0.0111
     24 C         143.7903  143.9920  163.9304 C.ar    1  UNL1        0.0577
     25 CL        143.8635  145.4631  164.2140 Cl      1  UNL1       -0.0822
     26 C         143.0253  143.4949  162.7397 C.ar    1  UNL1        0.0111
     27 C         142.9521  142.0237  162.4560 C.ar    1  UNL1       -0.0015
@<TRIPOS>BOND
     1     1     2    1
     2     2     3   ar
     3     3     4   ar
     4     4     5   ar
     5     5     6   ar
     6     6    12    1
     7    12    13    2
     8    13    14    1
     9    14    15    1
    10    15    16    1
    11    16    17    1
    12    17    18    1
    13     6     7   ar
    14     7    20    1
    15    20    21    1
    16    21    22   ar
    17    22    23   ar
    18    23    24   ar
    19    24    25    1
    20    24    26   ar
    21    26    27   ar
    22     7     8   ar
    23     8     9   ar
    24     9    10   ar
    25    10    11    1
    26    10     2   ar
    27     8     4   ar
    28    18    14    1
    29    27    21   ar
    30    17    19    1
@<TRIPOS>MOLECULE
*****
 27 30 0 0 0
SMALL
GASTEIGER

@<TRIPOS>ATOM
      1 C         140.2124  140.2819  170.7768 C.3     1  UNL1        0.0307
      2 C         140.9362  140.4976  169.4808 C.ar    1  UNL1       -0.0242
      3 C         140.5102  141.6012  168.5586 C.ar    1  UNL1        0.0161
      4 C         141.2340  141.8170  167.2626 C.ar    1  UNL1        0.0983
      5 N         141.0422  142.8158  166.1600 N.ar    1  UNL1       -0.2268
      6 C         142.0734  142.5452  165.1049 C.ar    1  UNL1        0.1438
      7 N         142.9025  141.3792  165.5553 N.ar    1  UNL1       -0.3072
      8 C         142.3837  140.9291  166.8888 C.ar    1  UNL1        0.0788
      9 C         142.8097  139.8255  167.8110 C.ar    1  UNL1        0.0142
     10 C         142.0859  139.6098  169.1071 C.ar    1  UNL1       -0.0243
     11 C         142.5120  138.5061  170.0293 C.3     1  UNL1        0.0307
     12 C         142.2453  143.3070  163.8241 C.2     1  UNL1        0.0325
     13 C         141.4300  142.9419  162.6191 C.2     1  UNL1       -0.0219
     14 C         141.6020  143.7036  161.3385 C.3     1  UNL1        0.0392
     15 C         142.2811  143.2021  160.0987 C.3     1  UNL1        0.0228
     16 C         142.2239  144.2891  159.0667 C.3     1  UNL1        0.0689
     17 N         141.5094  145.4625  159.6687 N.3     1  UNL1       -0.2972
     18 C         141.1250  145.1007  161.0728 C.3     1  UNL1        0.0730
     19 H         140.6731  145.6749  159.1247 H       1  UNL1        0.1233
     20 C         144.0491  140.7701  164.8041 C.3     1  UNL1        0.1342
     21 C         143.7966  140.0170  163.5317 C.ar    1  UNL1        0.0005
     22 C         144.3234  140.5454  162.2303 C.ar    1  UNL1       -0.0015
     23 C         144.0710  139.7924  160.9578 C.ar    1  UNL1        0.0111
     24 C         143.2918  138.5110  160.9866 C.ar    1  UNL1        0.0577
     25 CL        143.0394  137.7579  159.7142 Cl      1  UNL1       -0.0822
     26 C         142.7650  137.9826  162.2879 C.ar    1  UNL1        0.0111
     27 C         143.0175  138.7356  163.5604 C.ar    1  UNL1       -0.0015
@<TRIPOS>BOND
     1     1     2    1
     2     2     3   ar
     3     3     4   ar
     4     4     5   ar
     5     5     6   ar
     6     6    12    1
     7    12    13    2
     8    13    14    1
     9    14    15    1
    10    15    16    1
    11    16    17    1
    12    17    18    1
    13     6     7   ar
    14     7    20    1
    15    20    21    1
    16    21    22   ar
    17    22    23   ar
    18    23    24   ar
    19    24    25    1
    20    24    26   ar
    21    26    27   ar
    22     7     8   ar
    23     8     9   ar
    24     9    10   ar
    25    10    11    1
    26    10     2   ar
    27     8     4   ar
    28    18    14    1
    29    27    21   ar
    30    17    19    1
@<TRIPOS>MOLECULE
*****
 27 30 0 0 0
SMALL
GASTEIGER

@<TRIPOS>ATOM
      1 C         144.7120  142.5129  158.5058 C.3     1  UNL1        0.0307
      2 C         143.9389  142.4686  159.7904 C.ar    1  UNL1       -0.0242
      3 C         144.6648  142.4716  161.1031 C.ar    1  UNL1        0.0161
      4 C         143.8917  142.4273  162.3877 C.ar    1  UNL1        0.0983
      5 N         144.3291  142.4193  163.8226 N.ar    1  UNL1       -0.2268
      6 C         143.1004  142.3669  164.6814 C.ar    1  UNL1        0.1438
      7 N         141.9037  142.3426  163.7773 N.ar    1  UNL1       -0.3072
      8 C         142.3928  142.3799  162.3598 C.ar    1  UNL1        0.0788
      9 C         141.6669  142.3768  161.0471 C.ar    1  UNL1        0.0142
     10 C         142.4400  142.4211  159.7625 C.ar    1  UNL1       -0.0243
     11 C         141.7140  142.4181  158.4498 C.3     1  UNL1        0.0307
     12 C         143.0731  142.3431  166.1810 C.2     1  UNL1        0.0325
     13 C         142.8273  141.0533  166.9062 C.2     1  UNL1       -0.0219
     14 C         142.8001  141.0295  168.4057 C.3     1  UNL1        0.0392
     15 C         142.4543  139.8480  169.2626 C.3     1  UNL1        0.0228
     16 C         142.5543  140.2714  170.6982 C.3     1  UNL1        0.0689
     17 N         142.9619  141.7146  170.7285 N.3     1  UNL1       -0.2972
     18 C         143.1139  142.1832  169.3116 C.3     1  UNL1        0.0730
     19 H         143.8487  141.8135  171.2227 H       1  UNL1        0.1233
     20 C         140.4696  142.2901  164.2140 C.3     1  UNL1        0.1342
     21 C         139.8745  140.9945  164.6801 C.ar    1  UNL1        0.0005
     22 C         139.7523  139.8404  163.7298 C.ar    1  UNL1       -0.0015
     23 C         139.1571  138.5448  164.1957 C.ar    1  UNL1        0.0111
     24 C         138.6840  138.4033  165.6121 C.ar    1  UNL1        0.0577
     25 CL        138.0888  137.1077  166.0782 Cl      1  UNL1       -0.0822
     26 C         138.8061  139.5573  166.5625 C.ar    1  UNL1        0.0111
     27 C         139.4014  140.8530  166.0965 C.ar    1  UNL1       -0.0015
@<TRIPOS>BOND
     1     1     2    1
     2     2     3   ar
     3     3     4   ar
     4     4     5   ar
     5     5     6   ar
     6     6    12    1
     7    12    13    2
     8    13    14    1
     9    14    15    1
    10    15    16    1
    11    16    17    1
    12    17    18    1
    13     6     7   ar
    14     7    20    1
    15    20    21    1
    16    21    22   ar
    17    22    23   ar
    18    23    24   ar
    19    24    25    1
    20    24    26   ar
    21    26    27   ar
    22     7     8   ar
    23     8     9   ar
    24     9    10   ar
    25    10    11    1
    26    10     2   ar
    27     8     4   ar
    28    18    14    1
    29    27    21   ar
    30    17    19    1
@<TRIPOS>MOLECULE
*****
 27 30 0 0 0
SMALL
GASTEIGER

@<TRIPOS>ATOM
      1 C         141.0334  145.8200  158.4301 C.3     1  UNL1        0.0307
      2 C         140.5209  145.0445  159.6073 C.ar    1  UNL1       -0.0242
      3 C         140.8304  145.5049  161.0010 C.ar    1  UNL1        0.0161
      4 C         140.3178  144.7294  162.1782 C.ar    1  UNL1        0.0983
      5 N         140.4604  144.9383  163.6568 N.ar    1  UNL1       -0.2268
      6 C         139.7265  143.8315  164.3542 C.ar    1  UNL1        0.1438
      7 N         139.1304  142.9386  163.3066 N.ar    1  UNL1       -0.3072
      8 C         139.4958  143.4935  161.9618 C.ar    1  UNL1        0.0788
      9 C         139.1864  143.0331  160.5682 C.ar    1  UNL1        0.0142
     10 C         139.6989  143.8086  159.3910 C.ar    1  UNL1       -0.0243
     11 C         139.3893  143.3482  157.9973 C.3     1  UNL1        0.0307
     12 C         139.6093  143.6495  165.8385 C.2     1  UNL1        0.0325
     13 C         140.4025  142.5792  166.5278 C.2     1  UNL1       -0.0219
     14 C         140.2852  142.3972  168.0121 C.3     1  UNL1        0.0392
     15 C         140.4124  143.4769  169.0455 C.3     1  UNL1        0.0228
     16 C         140.2260  142.8506  170.3957 C.3     1  UNL1        0.0689
     17 N         139.9836  141.3838  170.1967 N.3     1  UNL1       -0.2972
     18 C         140.0202  141.1035  168.7235 C.3     1  UNL1        0.0730
     19 H         139.0711  141.1294  170.5749 H       1  UNL1        0.1233
     20 C         138.3124  141.7069  163.5595 C.3     1  UNL1        0.1342
     21 C         138.9921  140.3942  163.8137 C.ar    1  UNL1        0.0005
     22 C         140.1991  140.0068  163.0117 C.ar    1  UNL1       -0.0015
     23 C         140.8789  138.6941  163.2659 C.ar    1  UNL1        0.0111
     24 C         140.3517  137.7687  164.3222 C.ar    1  UNL1        0.0577
     25 CL        141.0315  136.4560  164.5764 Cl      1  UNL1       -0.0822
     26 C         139.1448  138.1560  165.1242 C.ar    1  UNL1        0.0111
     27 C         138.4650  139.4688  164.8700 C.ar    1  UNL1       -0.0015
@<TRIPOS>BOND
     1     1     2    1
     2     2     3   ar
     3     3     4   ar
     4     4     5   ar
     5     5     6   ar
     6     6    12    1
     7    12    13    2
     8    13    14    1
     9    14    15    1
    10    15    16    1
    11    16    17    1
    12    17    18    1
    13     6     7   ar
    14     7    20    1
    15    20    21    1
    16    21    22   ar
    17    22    23   ar
    18    23    24   ar
    19    24    25    1
    20    24    26   ar
    21    26    27   ar
    22     7     8   ar
    23     8     9   ar
    24     9    10   ar
    25    10    11    1
    26    10     2   ar
    27     8     4   ar
    28    18    14    1
    29    27    21   ar
    30    17    19    1
@<TRIPOS>MOLECULE
*****
 27 30 0 0 0
SMALL
GASTEIGER

@<TRIPOS>ATOM
      1 C         142.8536  142.9349  170.8239 C.3     1  UNL1        0.0307
      2 C         142.3294  142.5273  169.4789 C.ar    1  UNL1       -0.0242
      3 C         143.1050  141.5614  168.6330 C.ar    1  UNL1        0.0161
      4 C         142.5809  141.1537  167.2880 C.ar    1  UNL1        0.0983
      5 N         143.1206  140.2269  166.2392 N.ar    1  UNL1       -0.2268
      6 C         142.1545  140.2124  165.0919 C.ar    1  UNL1        0.1438
      7 N         141.0177  141.1302  165.4316 N.ar    1  UNL1       -0.3072
      8 C         141.2812  141.7119  166.7888 C.ar    1  UNL1        0.0788
      9 C         140.5057  142.6778  167.6347 C.ar    1  UNL1        0.0142
     10 C         141.0298  143.0855  168.9797 C.ar    1  UNL1       -0.0243
     11 C         140.2542  144.0514  169.8256 C.3     1  UNL1        0.0307
     12 C         142.2997  139.4194  163.8269 C.2     1  UNL1        0.0325
     13 C         142.6060  140.1174  162.5351 C.2     1  UNL1       -0.0219
     14 C         142.7511  139.3244  161.2702 C.3     1  UNL1        0.0392
     15 C         142.7052  137.8295  161.1567 C.3     1  UNL1        0.0228
     16 C         142.8934  137.4682  159.7131 C.3     1  UNL1        0.0689
     17 N         143.0555  138.7399  158.9344 N.3     1  UNL1       -0.2972
     18 C         142.9676  139.8872  159.8967 C.3     1  UNL1        0.0730
     19 H         142.3150  138.8155  158.2370 H       1  UNL1        0.1233
     20 C         139.8265  141.4161  164.5660 C.3     1  UNL1        0.1342
     21 C         139.7302  142.7190  163.8290 C.ar    1  UNL1        0.0005
     22 C         138.3857  143.2992  163.5037 C.ar    1  UNL1       -0.0015
     23 C         138.2894  144.6020  162.7667 C.ar    1  UNL1        0.0111
     24 C         139.5376  145.3248  162.3549 C.ar    1  UNL1        0.0577
     25 CL        139.4413  146.6276  161.6178 Cl      1  UNL1       -0.0822
     26 C         140.8821  144.7447  162.6800 C.ar    1  UNL1        0.0111
     27 C         140.9784  143.4417  163.4171 C.ar    1  UNL1       -0.0015
@<TRIPOS>BOND
     1     1     2    1
     2     2     3   ar
     3     3     4   ar
     4     4     5   ar
     5     5     6   ar
     6     6    12    1
     7    12    13    2
     8    13    14    1
     9    14    15    1
    10    15    16    1
    11    16    17    1
    12    17    18    1
    13     6     7   ar
    14     7    20    1
    15    20    21    1
    16    21    22   ar
    17    22    23   ar
    18    23    24   ar
    19    24    25    1
    20    24    26   ar
    21    26    27   ar
    22     7     8   ar
    23     8     9   ar
    24     9    10   ar
    25    10    11    1
    26    10     2   ar
    27     8     4   ar
    28    18    14    1
    29    27    21   ar
    30    17    19    1
@<TRIPOS>MOLECULE
*****
 27 30 0 0 0
SMALL
GASTEIGER

@<TRIPOS>ATOM
      1 C         142.9530  137.3728  159.8533 C.3     1  UNL1        0.0307
      2 C         142.4124  138.1741  161.0004 C.ar    1  UNL1       -0.0242
      3 C         143.0792  138.1070  162.3423 C.ar    1  UNL1        0.0161
      4 C         142.5386  138.9082  163.4894 C.ar    1  UNL1        0.0983
      5 N         142.9812  139.0429  164.9163 N.ar    1  UNL1       -0.2268
      6 C         142.0471  139.9945  165.6034 C.ar    1  UNL1        0.1438
      7 N         141.0274  140.4479  164.6011 N.ar    1  UNL1       -0.3072
      8 C         141.3311  139.7765  163.2946 C.ar    1  UNL1        0.0788
      9 C         140.6643  139.8436  161.9527 C.ar    1  UNL1        0.0142
     10 C         141.2049  139.0424  160.8056 C.ar    1  UNL1       -0.0243
     11 C         140.5380  139.1095  159.4636 C.3     1  UNL1        0.0307
     12 C         142.1200  140.4184  167.0405 C.2     1  UNL1        0.0325
     13 C         140.9718  140.1384  167.9641 C.2     1  UNL1       -0.0219
     14 C         141.0448  140.5622  169.4011 C.3     1  UNL1        0.0392
     15 C         141.8863  141.6758  169.9503 C.3     1  UNL1        0.0228
     16 C         141.6506  141.7487  171.4298 C.3     1  UNL1        0.0689
     17 N         140.6633  140.6802  171.7951 N.3     1  UNL1       -0.2972
     18 C         140.2888  139.9468  170.5412 C.3     1  UNL1        0.0730
     19 H         139.8330  141.1033  172.2097 H       1  UNL1        0.1233
     20 C         139.9015  141.4047  164.8598 C.3     1  UNL1        0.1342
     21 C         139.8200  142.6918  164.0939 C.ar    1  UNL1        0.0005
     22 C         141.0680  143.4713  163.8023 C.ar    1  UNL1       -0.0015
     23 C         140.9866  144.7584  163.0364 C.ar    1  UNL1        0.0111
     24 C         139.6572  145.2661  162.5620 C.ar    1  UNL1        0.0577
     25 CL        139.5757  146.5532  161.7961 Cl      1  UNL1       -0.0822
     26 C         138.4092  144.4866  162.8536 C.ar    1  UNL1        0.0111
     27 C         138.4906  143.1994  163.6196 C.ar    1  UNL1       -0.0015
@<TRIPOS>BOND
     1     1     2    1
     2     2     3   ar
     3     3     4   ar
     4     4     5   ar
     5     5     6   ar
     6     6    12    1
     7    12    13    2
     8    13    14    1
     9    14    15    1
    10    15    16    1
    11    16    17    1
    12    17    18    1
    13     6     7   ar
    14     7    20    1
    15    20    21    1
    16    21    22   ar
    17    22    23   ar
    18    23    24   ar
    19    24    25    1
    20    24    26   ar
    21    26    27   ar
    22     7     8   ar
    23     8     9   ar
    24     9    10   ar
    25    10    11    1
    26    10     2   ar
    27     8     4   ar
    28    18    14    1
    29    27    21   ar
    30    17    19    1
@<TRIPOS>MOLECULE
*****
 27 30 0 0 0
SMALL
GASTEIGER

@<TRIPOS>ATOM
      1 C         143.0514  139.2579  170.6864 C.3     1  UNL1        0.0307
      2 C         142.2706  139.6884  169.4801 C.ar    1  UNL1       -0.0242
      3 C         142.6629  139.1970  168.1183 C.ar    1  UNL1        0.0161
      4 C         141.8821  139.6275  166.9120 C.ar    1  UNL1        0.0983
      5 N         142.0313  139.3091  165.4537 N.ar    1  UNL1       -0.2268
      6 C         140.9505  140.0342  164.7081 C.ar    1  UNL1        0.1438
      7 N         140.1333  140.8007  165.7055 N.ar    1  UNL1       -0.3072
      8 C         140.7091  140.5493  167.0676 C.ar    1  UNL1        0.0788
      9 C         140.3168  141.0406  168.4294 C.ar    1  UNL1        0.0142
     10 C         141.0976  140.6102  169.6357 C.ar    1  UNL1       -0.0243
     11 C         140.7053  141.1016  170.9976 C.3     1  UNL1        0.0307
     12 C         140.7262  139.9991  163.2253 C.2     1  UNL1        0.0325
     13 C         139.4438  139.4505  162.6736 C.2     1  UNL1       -0.0219
     14 C         139.2195  139.4153  161.1909 C.3     1  UNL1        0.0392
     15 C         140.1153  138.7649  160.1789 C.3     1  UNL1        0.0228
     16 C         139.5095  138.9720  158.8224 C.3     1  UNL1        0.0689
     17 N         138.2392  139.7506  158.9961 N.3     1  UNL1       -0.2972
     18 C         138.0599  140.0246  160.4600 C.3     1  UNL1        0.0730
     19 H         137.4498  139.2075  158.6464 H       1  UNL1        0.1233
     20 C         138.9484  141.6665  165.3953 C.3     1  UNL1        0.1342
     21 C         139.1014  142.8496  164.4860 C.ar    1  UNL1        0.0005
     22 C         138.0963  143.0960  163.4002 C.ar    1  UNL1       -0.0015
     23 C         138.2493  144.2791  162.4908 C.ar    1  UNL1        0.0111
     24 C         139.4074  145.2159  162.6673 C.ar    1  UNL1        0.0577
     25 CL        139.5604  146.3989  161.7581 Cl      1  UNL1       -0.0822
     26 C         140.4125  144.9696  163.7532 C.ar    1  UNL1        0.0111
     27 C         140.2595  143.7864  164.6625 C.ar    1  UNL1       -0.0015
@<TRIPOS>BOND
     1     1     2    1
     2     2     3   ar
     3     3     4   ar
     4     4     5   ar
     5     5     6   ar
     6     6    12    1
     7    12    13    2
     8    13    14    1
     9    14    15    1
    10    15    16    1
    11    16    17    1
    12    17    18    1
    13     6     7   ar
    14     7    20    1
    15    20    21    1
    16    21    22   ar
    17    22    23   ar
    18    23    24   ar
    19    24    25    1
    20    24    26   ar
    21    26    27   ar
    22     7     8   ar
    23     8     9   ar
    24     9    10   ar
    25    10    11    1
    26    10     2   ar
    27     8     4   ar
    28    18    14    1
    29    27    21   ar
    30    17    19    1
