@<TRIPOS>MOLECULE
*****
 43 47 0 0 0
SMALL
GASTEIGER

@<TRIPOS>ATOM
      1 C         143.4101  142.1717  162.2650 C.2     1  UNL1        0.2435
      2 O         144.4052  141.0508  162.2074 O.2     1  UNL1       -0.2731
      3 N         142.7974  142.6964  161.0003 N.am    1  UNL1       -0.2781
      4 C         143.1798  142.1002  159.6781 C.3     1  UNL1        0.0956
      5 C         142.5671  142.6249  158.4135 C.3     1  UNL1        0.0490
      6 C         141.5720  143.7458  158.4711 C.3     1  UNL1        0.1377
      7 C         141.1896  144.3420  159.7933 C.3     1  UNL1        0.0490
      8 C         141.8022  143.8173  161.0579 C.3     1  UNL1        0.0956
      9 C         140.5684  144.8562  158.3722 C.2     1  UNL1        0.2491
     10 O         140.0013  145.6370  159.5207 O.2     1  UNL1       -0.2727
     11 N         140.2315  145.0489  156.9232 N.am    1  UNL1       -0.2108
     12 C         139.2683  146.0561  156.3684 C.3     1  UNL1        0.1245
     13 C         141.0268  144.0575  156.1266 C.2     1  UNL1        0.3168
     14 O         140.9987  143.8993  154.6353 O.2     1  UNL1       -0.2516
     15 N         141.8553  143.2522  157.0832 N.am    1  UNL1       -0.2411
     16 C         142.8011  142.1472  156.7164 C.2     1  UNL1        0.0376
     17 C         144.2371  142.4583  156.4148 C.2     1  UNL1        0.0125
     18 C         145.1828  141.3532  156.0480 C.2     1  UNL1        0.0216
     19 C         144.6925  139.9371  155.9828 C.2     1  UNL1        0.1008
     20 N         145.3863  138.6489  155.6524 N.2     1  UNL1       -0.1482
     21 N         144.3791  137.5417  155.7499 N.2     1  UNL1       -0.1467
     22 C         143.0628  138.1456  156.1405 C.2     1  UNL1        0.1198
     23 C         143.2564  139.6260  156.2844 C.2     1  UNL1        0.0238
     24 C         142.3108  140.7311  156.6512 C.3     1  UNL1        0.0710
     25 C         143.0276  142.7679  163.5872 C.3     1  UNL1        0.1489
     26 N         141.8517  142.2241  164.3431 N.am    1  UNL1       -0.2947
     27 C         142.0208  141.0304  165.2357 C.2     1  UNL1        0.2483
     28 O         143.3658  140.3806  165.3723 O.2     1  UNL1       -0.2701
     29 H         140.9689  142.6506  164.2534 H       1  UNL1        0.1501
     30 C         140.8448  140.4866  165.9916 C.ar    1  UNL1        0.0807
     31 C         140.8657  140.4573  167.4912 C.ar    1  UNL1        0.0106
     32 C         139.6898  139.9134  168.2471 C.ar    1  UNL1        0.0717
     33 C         138.4929  139.3990  167.5035 C.ar    1  UNL1        0.0062
     34 C         138.4721  139.4284  166.0039 C.ar    1  UNL1        0.0297
     35 C         139.6480  139.9722  165.2480 C.ar    1  UNL1        0.1444
     36 F         139.6272  140.0016  163.7485 F       1  UNL1       -0.2040
     37 C         139.7106  139.8841  169.7467 C.3     1  UNL1        0.4186
     38 F         139.7316  139.8546  171.2463 F       1  UNL1       -0.1659
     39 F         141.1279  139.3938  169.7174 F       1  UNL1       -0.1659
     40 F         138.2934  140.3743  169.7760 F       1  UNL1       -0.1659
     41 C         143.7388  145.2659  163.5217 C.3     1  UNL1        0.0022
     42 C         143.8211  143.9080  164.1535 C.3     1  UNL1        0.0269
     43 C         144.6970  143.6900  165.3516 C.3     1  UNL1        0.0022
@<TRIPOS>BOND
     1    41    42    1
     2    42    43    1
     3    42    25    1
     4    25    26    1
     5    26    27   am
     6    27    28    2
     7    27    30    1
     8    30    31   ar
     9    31    32   ar
    10    32    37    1
    11    37    38    1
    12    37    39    1
    13    37    40    1
    14    32    33   ar
    15    33    34   ar
    16    34    35   ar
    17    35    36    1
    18    25     1    1
    19     1     2    2
    20     1     3   am
    21     3     4    1
    22     4     5    1
    23     5     6    1
    24     6     7    1
    25     7     8    1
    26     6     9    1
    27     9    10    2
    28     9    11   am
    29    11    12    1
    30    11    13   am
    31    13    14    2
    32    13    15   am
    33    15    16    1
    34    16    17    2
    35    17    18    1
    36    18    19    2
    37    19    20    1
    38    20    21    2
    39    21    22    1
    40    22    23    2
    41    23    24    1
    42    35    30   ar
    43     8     3    1
    44    24    16    1
    45    15     6    1
    46    23    19    1
    47    26    29    1
@<TRIPOS>MOLECULE
*****
 43 47 0 0 0
SMALL
GASTEIGER

@<TRIPOS>ATOM
      1 C         139.8482  139.2329  160.8211 C.2     1  UNL1        0.2435
      2 O         139.0260  137.9835  160.7075 O.2     1  UNL1       -0.2731
      3 N         140.9421  139.5034  159.8309 N.am    1  UNL1       -0.2781
      4 C         141.2136  138.5246  158.7273 C.3     1  UNL1        0.0956
      5 C         142.3074  138.7952  157.7372 C.3     1  UNL1        0.0490
      6 C         143.1297  140.0445  157.8507 C.3     1  UNL1        0.1377
      7 C         142.8582  141.0234  158.9544 C.3     1  UNL1        0.0490
      8 C         141.7644  140.7528  159.9445 C.3     1  UNL1        0.0956
      9 C         144.0299  141.2444  157.8373 C.2     1  UNL1        0.2491
     10 O         143.9943  142.3842  158.8117 O.2     1  UNL1       -0.2727
     11 N         144.9720  141.1041  156.6784 N.am    1  UNL1       -0.2108
     12 C         146.0438  142.0792  156.2905 C.3     1  UNL1        0.1245
     13 C         144.6540  139.8176  155.9756 C.2     1  UNL1        0.3168
     14 O         145.3520  139.2804  154.7616 O.2     1  UNL1       -0.2516
     15 N         143.5155  139.1628  156.7001 N.am    1  UNL1       -0.2411
     16 C         142.8750  137.8557  156.3378 C.2     1  UNL1        0.0376
     17 C         141.7085  137.8278  155.3952 C.2     1  UNL1        0.0125
     18 C         141.0681  136.5207  155.0329 C.2     1  UNL1        0.0216
     19 C         141.5942  135.2414  155.6131 C.2     1  UNL1        0.1008
     20 N         141.1710  133.8126  155.4414 N.2     1  UNL1       -0.1482
     21 N         142.0760  132.9575  156.2779 N.2     1  UNL1       -0.1467
     22 C         143.0585  133.8577  156.9665 C.2     1  UNL1        0.1198
     23 C         142.7608  135.2692  156.5556 C.2     1  UNL1        0.0238
     24 C         143.4011  136.5764  156.9179 C.3     1  UNL1        0.0710
     25 C         139.5767  140.2117  161.9248 C.3     1  UNL1        0.1489
     26 N         140.4290  140.2057  163.1591 N.am    1  UNL1       -0.2947
     27 C         140.1224  139.2544  164.2776 C.2     1  UNL1        0.2483
     28 O         138.9635  138.3092  164.1618 O.2     1  UNL1       -0.2701
     29 H         141.1896  140.8261  163.2351 H       1  UNL1        0.1501
     30 C         140.9747  139.2485  165.5120 C.ar    1  UNL1        0.0807
     31 C         140.4175  139.7518  166.8105 C.ar    1  UNL1        0.0106
     32 C         141.2698  139.7459  168.0449 C.ar    1  UNL1        0.0717
     33 C         142.6793  139.2365  167.9806 C.ar    1  UNL1        0.0062
     34 C         143.2364  138.7332  166.6821 C.ar    1  UNL1        0.0297
     35 C         142.3841  138.7392  165.4477 C.ar    1  UNL1        0.1444
     36 F         142.9411  138.2358  164.1492 F       1  UNL1       -0.2040
     37 C         140.7127  140.2492  169.3434 C.3     1  UNL1        0.4186
     38 F         140.1556  140.7526  170.6420 F       1  UNL1       -0.1659
     39 F         140.0185  141.3612  168.6145 F       1  UNL1       -0.1659
     40 F         141.4070  139.1372  170.0723 F       1  UNL1       -0.1659
     41 C         137.4001  141.2789  162.8595 C.3     1  UNL1        0.0022
     42 C         138.4528  141.1966  161.7941 C.3     1  UNL1        0.0269
     43 C         138.3817  142.0991  160.5981 C.3     1  UNL1        0.0022
@<TRIPOS>BOND
     1    41    42    1
     2    42    43    1
     3    42    25    1
     4    25    26    1
     5    26    27   am
     6    27    28    2
     7    27    30    1
     8    30    31   ar
     9    31    32   ar
    10    32    37    1
    11    37    38    1
    12    37    39    1
    13    37    40    1
    14    32    33   ar
    15    33    34   ar
    16    34    35   ar
    17    35    36    1
    18    25     1    1
    19     1     2    2
    20     1     3   am
    21     3     4    1
    22     4     5    1
    23     5     6    1
    24     6     7    1
    25     7     8    1
    26     6     9    1
    27     9    10    2
    28     9    11   am
    29    11    12    1
    30    11    13   am
    31    13    14    2
    32    13    15   am
    33    15    16    1
    34    16    17    2
    35    17    18    1
    36    18    19    2
    37    19    20    1
    38    20    21    2
    39    21    22    1
    40    22    23    2
    41    23    24    1
    42    35    30   ar
    43     8     3    1
    44    24    16    1
    45    15     6    1
    46    23    19    1
    47    26    29    1
@<TRIPOS>MOLECULE
*****
 43 47 0 0 0
SMALL
GASTEIGER

@<TRIPOS>ATOM
      1 C         141.0171  143.1380  161.7766 C.2     1  UNL1        0.2435
      2 O         140.0003  144.2321  161.6383 O.2     1  UNL1       -0.2731
      3 N         141.1804  142.1234  160.6839 N.am    1  UNL1       -0.2781
      4 C         140.3269  142.2028  159.4530 C.3     1  UNL1        0.0956
      5 C         140.4902  141.1881  158.3605 C.3     1  UNL1        0.0490
      6 C         141.5070  140.0940  158.4988 C.3     1  UNL1        0.1377
      7 C         142.3605  140.0146  159.7297 C.3     1  UNL1        0.0490
      8 C         142.1972  141.0293  160.8223 C.3     1  UNL1        0.0956
      9 C         142.4766  138.9495  158.4961 C.2     1  UNL1        0.2491
     10 O         143.4531  138.6187  159.5856 O.2     1  UNL1       -0.2727
     11 N         142.2982  138.1938  157.2127 N.am    1  UNL1       -0.2108
     12 C         143.0650  136.9747  156.7934 C.3     1  UNL1        0.1245
     13 C         141.2183  138.8714  156.4221 C.2     1  UNL1        0.3168
     14 O         140.7157  138.4487  155.0736 O.2     1  UNL1       -0.2516
     15 N         140.7293  140.0457  157.2169 N.am    1  UNL1       -0.2411
     16 C         139.6519  141.0036  156.8028 C.2     1  UNL1        0.0376
     17 C         138.2139  140.6818  157.0829 C.2     1  UNL1        0.0125
     18 C         137.1365  141.6398  156.6687 C.2     1  UNL1        0.0216
     19 C         137.4971  142.9196  155.9744 C.2     1  UNL1        0.1008
     20 N         136.6592  144.0489  155.4523 N.2     1  UNL1       -0.1482
     21 N         137.5794  145.0686  154.8495 N.2     1  UNL1       -0.1467
     22 C         138.9860  144.5696  154.9991 C.2     1  UNL1        0.1198
     23 C         138.9352  143.2414  155.6943 C.2     1  UNL1        0.0238
     24 C         140.0125  142.2835  156.1085 C.3     1  UNL1        0.0710
     25 C         141.8707  143.0586  163.0075 C.3     1  UNL1        0.1489
     26 N         141.4823  142.1448  164.1318 N.am    1  UNL1       -0.2947
     27 C         140.4254  142.5657  165.1095 C.2     1  UNL1        0.2483
     28 O         139.7570  143.9005  164.9629 O.2     1  UNL1       -0.2701
     29 H         141.9211  141.2687  164.2280 H       1  UNL1        0.1501
     30 C         140.0371  141.6518  166.2338 C.ar    1  UNL1        0.0807
     31 C         139.2386  140.4136  165.9521 C.ar    1  UNL1        0.0106
     32 C         138.8502  139.4997  167.0764 C.ar    1  UNL1        0.0717
     33 C         139.2604  139.8241  168.4824 C.ar    1  UNL1        0.0062
     34 C         140.0588  141.0623  168.7640 C.ar    1  UNL1        0.0297
     35 C         140.4472  141.9761  167.6397 C.ar    1  UNL1        0.1444
     36 F         141.2456  143.2143  167.9213 F       1  UNL1       -0.2040
     37 C         138.0518  138.2615  166.7948 C.3     1  UNL1        0.4186
     38 F         137.2533  137.0233  166.5132 F       1  UNL1       -0.1659
     39 F         137.1703  138.5626  167.9705 F       1  UNL1       -0.1659
     40 F         138.9333  137.9605  165.6191 F       1  UNL1       -0.1659
     41 C         144.3502  143.4951  162.3659 C.3     1  UNL1        0.0022
     42 C         143.1126  143.8931  163.1142 C.3     1  UNL1        0.0269
     43 C         143.1169  145.1256  163.9691 C.3     1  UNL1        0.0022
@<TRIPOS>BOND
     1    41    42    1
     2    42    43    1
     3    42    25    1
     4    25    26    1
     5    26    27   am
     6    27    28    2
     7    27    30    1
     8    30    31   ar
     9    31    32   ar
    10    32    37    1
    11    37    38    1
    12    37    39    1
    13    37    40    1
    14    32    33   ar
    15    33    34   ar
    16    34    35   ar
    17    35    36    1
    18    25     1    1
    19     1     2    2
    20     1     3   am
    21     3     4    1
    22     4     5    1
    23     5     6    1
    24     6     7    1
    25     7     8    1
    26     6     9    1
    27     9    10    2
    28     9    11   am
    29    11    12    1
    30    11    13   am
    31    13    14    2
    32    13    15   am
    33    15    16    1
    34    16    17    2
    35    17    18    1
    36    18    19    2
    37    19    20    1
    38    20    21    2
    39    21    22    1
    40    22    23    2
    41    23    24    1
    42    35    30   ar
    43     8     3    1
    44    24    16    1
    45    15     6    1
    46    23    19    1
    47    26    29    1
@<TRIPOS>MOLECULE
*****
 43 47 0 0 0
SMALL
GASTEIGER

@<TRIPOS>ATOM
      1 C         143.7483  140.5990  161.9622 C.2     1  UNL1        0.2435
      2 O         144.3200  139.2189  161.8267 O.2     1  UNL1       -0.2731
      3 N         143.4182  141.3978  160.7361 N.am    1  UNL1       -0.2781
      4 C         143.6597  140.8164  159.3747 C.3     1  UNL1        0.0956
      5 C         143.3295  141.6151  158.1488 C.3     1  UNL1        0.0490
      6 C         142.7579  142.9953  158.2843 C.3     1  UNL1        0.1377
      7 C         142.5164  143.5767  159.6457 C.3     1  UNL1        0.0490
      8 C         142.8465  142.7780  160.8716 C.3     1  UNL1        0.0956
      9 C         142.1840  144.3810  158.2629 C.2     1  UNL1        0.2491
     10 O         141.8396  145.2113  159.4637 O.2     1  UNL1       -0.2727
     11 N         142.0151  144.7907  156.8297 N.am    1  UNL1       -0.2108
     12 C         141.4721  146.1026  156.3459 C.3     1  UNL1        0.1245
     13 C         142.4846  143.6581  155.9655 C.2     1  UNL1        0.3168
     14 O         142.4935  143.6386  154.4657 O.2     1  UNL1       -0.2516
     15 N         142.9437  142.5485  156.8644 N.am    1  UNL1       -0.2411
     16 C         143.4922  141.2246  156.4213 C.2     1  UNL1        0.0376
     17 C         144.9315  141.1068  156.0158 C.2     1  UNL1        0.0125
     18 C         145.4799  139.7829  155.5728 C.2     1  UNL1        0.0216
     19 C         144.5891  138.5766  155.5351 C.2     1  UNL1        0.1008
     20 N         144.8458  137.1509  155.1459 N.2     1  UNL1       -0.1482
     21 N         143.5652  136.3877  155.3108 N.2     1  UNL1       -0.1467
     22 C         142.5169  137.3415  155.8020 C.2     1  UNL1        0.1198
     23 C         143.1497  138.6944  155.9406 C.2     1  UNL1        0.0238
     24 C         142.6013  140.0184  156.3837 C.3     1  UNL1        0.0710
     25 C         143.5068  141.1805  163.3236 C.3     1  UNL1        0.1489
     26 N         142.2124  140.9152  164.0336 N.am    1  UNL1       -0.2947
     27 C         142.0731  139.7083  164.9134 C.2     1  UNL1        0.2483
     28 O         143.2283  138.7666  165.0832 O.2     1  UNL1       -0.2701
     29 H         141.4542  141.5333  163.9222 H       1  UNL1        0.1501
     30 C         140.7787  139.4431  165.6234 C.ar    1  UNL1        0.0807
     31 C         140.5555  139.9860  167.0038 C.ar    1  UNL1        0.0106
     32 C         139.2610  139.7208  167.7138 C.ar    1  UNL1        0.0717
     33 C         138.1898  138.9126  167.0433 C.ar    1  UNL1        0.0062
     34 C         138.4131  138.3697  165.6630 C.ar    1  UNL1        0.0297
     35 C         139.7075  138.6349  164.9530 C.ar    1  UNL1        0.1444
     36 F         139.9307  138.0920  163.5727 F       1  UNL1       -0.2040
     37 C         139.0378  140.2637  169.0941 C.3     1  UNL1        0.4186
     38 F         138.8145  140.8067  170.4745 F       1  UNL1       -0.1659
     39 F         137.7821  139.4516  169.2104 F       1  UNL1       -0.1659
     40 F         140.2934  141.0759  168.9777 F       1  UNL1       -0.1659
     41 C         144.1611  143.1801  164.8479 C.3     1  UNL1        0.0022
     42 C         144.5598  142.0272  163.9751 C.3     1  UNL1        0.0269
     43 C         146.0114  141.7209  163.7539 C.3     1  UNL1        0.0022
@<TRIPOS>BOND
     1    41    42    1
     2    42    43    1
     3    42    25    1
     4    25    26    1
     5    26    27   am
     6    27    28    2
     7    27    30    1
     8    30    31   ar
     9    31    32   ar
    10    32    37    1
    11    37    38    1
    12    37    39    1
    13    37    40    1
    14    32    33   ar
    15    33    34   ar
    16    34    35   ar
    17    35    36    1
    18    25     1    1
    19     1     2    2
    20     1     3   am
    21     3     4    1
    22     4     5    1
    23     5     6    1
    24     6     7    1
    25     7     8    1
    26     6     9    1
    27     9    10    2
    28     9    11   am
    29    11    12    1
    30    11    13   am
    31    13    14    2
    32    13    15   am
    33    15    16    1
    34    16    17    2
    35    17    18    1
    36    18    19    2
    37    19    20    1
    38    20    21    2
    39    21    22    1
    40    22    23    2
    41    23    24    1
    42    35    30   ar
    43     8     3    1
    44    24    16    1
    45    15     6    1
    46    23    19    1
    47    26    29    1
@<TRIPOS>MOLECULE
*****
 43 47 0 0 0
SMALL
GASTEIGER

@<TRIPOS>ATOM
      1 C         141.0875  143.1384  161.8467 C.2     1  UNL1        0.2435
      2 O         140.0763  144.2373  161.7057 O.2     1  UNL1       -0.2731
      3 N         141.2241  142.1023  160.7706 N.am    1  UNL1       -0.2781
      4 C         140.3496  142.1651  159.5536 C.3     1  UNL1        0.0956
      5 C         140.4862  141.1291  158.4776 C.3     1  UNL1        0.0490
      6 C         141.4974  140.0301  158.6186 C.3     1  UNL1        0.1377
      7 C         142.3720  139.9673  159.8356 C.3     1  UNL1        0.0490
      8 C         142.2353  141.0034  160.9116 C.3     1  UNL1        0.0956
      9 C         142.4585  138.8785  158.6205 C.2     1  UNL1        0.2491
     10 O         143.4517  138.5607  159.6987 O.2     1  UNL1       -0.2727
     11 N         142.2521  138.1003  157.3547 N.am    1  UNL1       -0.2108
     12 C         143.0025  136.8679  156.9451 C.3     1  UNL1        0.1245
     13 C         141.1633  138.7711  156.5706 C.2     1  UNL1        0.3168
     14 O         140.6339  138.3272  155.2393 O.2     1  UNL1       -0.2516
     15 N         140.6969  139.9638  157.3517 N.am    1  UNL1       -0.2411
     16 C         139.6193  140.9219  156.9386 C.2     1  UNL1        0.0376
     17 C         138.1847  140.6190  157.2550 C.2     1  UNL1        0.0125
     18 C         137.1071  141.5771  156.8418 C.2     1  UNL1        0.0216
     19 C         137.4641  142.8382  156.1122 C.2     1  UNL1        0.1008
     20 N         136.6251  143.9632  155.5825 N.2     1  UNL1       -0.1482
     21 N         137.5411  144.9613  154.9388 N.2     1  UNL1       -0.1467
     22 C         138.9463  144.4533  155.0706 C.2     1  UNL1        0.1198
     23 C         138.8987  143.1411  155.7958 C.2     1  UNL1        0.0238
     24 C         139.9763  142.1830  156.2090 C.3     1  UNL1        0.0710
     25 C         141.9620  143.0755  163.0637 C.3     1  UNL1        0.1489
     26 N         141.5772  142.2002  164.2194 N.am    1  UNL1       -0.2947
     27 C         140.5797  142.6862  165.2289 C.2     1  UNL1        0.2483
     28 O         139.9671  144.0475  165.0826 O.2     1  UNL1       -0.2701
     29 H         141.9793  141.3067  164.3155 H       1  UNL1        0.1501
     30 C         140.1949  141.8108  166.3846 C.ar    1  UNL1        0.0807
     31 C         140.5069  142.2407  167.7875 C.ar    1  UNL1        0.0106
     32 C         140.1221  141.3653  168.9432 C.ar    1  UNL1        0.0717
     33 C         139.4253  140.0601  168.6960 C.ar    1  UNL1        0.0062
     34 C         139.1133  139.6304  167.2932 C.ar    1  UNL1        0.0297
     35 C         139.4981  140.5057  166.1375 C.ar    1  UNL1        0.1444
     36 F         139.1861  140.0760  164.7347 F       1  UNL1       -0.2040
     37 C         140.4341  141.7950  170.3460 C.3     1  UNL1        0.4186
     38 F         140.7461  142.2248  171.7489 F       1  UNL1       -0.1659
     39 F         139.6266  143.0428  170.1433 F       1  UNL1       -0.1659
     40 F         141.2416  140.5473  170.5486 F       1  UNL1       -0.1659
     41 C         144.4381  143.4440  162.3686 C.3     1  UNL1        0.0022
     42 C         143.2215  143.8881  163.1251 C.3     1  UNL1        0.0269
     43 C         143.2641  145.1447  163.9430 C.3     1  UNL1        0.0022
@<TRIPOS>BOND
     1    41    42    1
     2    42    43    1
     3    42    25    1
     4    25    26    1
     5    26    27   am
     6    27    28    2
     7    27    30    1
     8    30    31   ar
     9    31    32   ar
    10    32    37    1
    11    37    38    1
    12    37    39    1
    13    37    40    1
    14    32    33   ar
    15    33    34   ar
    16    34    35   ar
    17    35    36    1
    18    25     1    1
    19     1     2    2
    20     1     3   am
    21     3     4    1
    22     4     5    1
    23     5     6    1
    24     6     7    1
    25     7     8    1
    26     6     9    1
    27     9    10    2
    28     9    11   am
    29    11    12    1
    30    11    13   am
    31    13    14    2
    32    13    15   am
    33    15    16    1
    34    16    17    2
    35    17    18    1
    36    18    19    2
    37    19    20    1
    38    20    21    2
    39    21    22    1
    40    22    23    2
    41    23    24    1
    42    35    30   ar
    43     8     3    1
    44    24    16    1
    45    15     6    1
    46    23    19    1
    47    26    29    1
@<TRIPOS>MOLECULE
*****
 43 47 0 0 0
SMALL
GASTEIGER

@<TRIPOS>ATOM
      1 C         143.2744  141.1825  161.8391 C.2     1  UNL1        0.2435
      2 O         144.4846  140.3060  161.7073 O.2     1  UNL1       -0.2731
      3 N         142.2964  141.2859  160.7064 N.am    1  UNL1       -0.2781
      4 C         142.5286  140.5129  159.4421 C.3     1  UNL1        0.0956
      5 C         141.5506  140.6164  158.3095 C.3     1  UNL1        0.0490
      6 C         140.3404  141.4929  158.4412 C.3     1  UNL1        0.1377
      7 C         140.1082  142.2658  159.7056 C.3     1  UNL1        0.0490
      8 C         141.0862  142.1623  160.8382 C.3     1  UNL1        0.0956
      9 C         139.0918  142.3241  158.4276 C.2     1  UNL1        0.2491
     10 O         138.6021  143.1978  159.5442 O.2     1  UNL1       -0.2727
     11 N         138.4190  142.1282  157.1013 N.am    1  UNL1       -0.2108
     12 C         137.1383  142.7717  156.6588 C.3     1  UNL1        0.1245
     13 C         139.2518  141.1759  156.2952 C.2     1  UNL1        0.3168
     14 O         138.9500  140.6999  154.9052 O.2     1  UNL1       -0.2516
     15 N         140.4392  140.7832  157.1233 N.am    1  UNL1       -0.2411
     16 C         141.5334  139.8456  156.7068 C.2     1  UNL1        0.0376
     17 C         142.7640  140.3799  156.0358 C.2     1  UNL1        0.0125
     18 C         143.8581  139.4422  155.6193 C.2     1  UNL1        0.0216
     19 C         143.7218  137.9702  155.8738 C.2     1  UNL1        0.1008
     20 N         144.6280  136.8122  155.5774 N.2     1  UNL1       -0.1482
     21 N         143.9575  135.5623  156.0653 N.2     1  UNL1       -0.1467
     22 C         142.6369  135.9477  156.6631 C.2     1  UNL1        0.1198
     23 C         142.4912  137.4359  156.5448 C.2     1  UNL1        0.0238
     24 C         141.3971  138.3736  156.9613 C.3     1  UNL1        0.0710
     25 C         143.0422  141.9554  163.1034 C.3     1  UNL1        0.1489
     26 N         141.8925  141.6005  163.9991 N.am    1  UNL1       -0.2947
     27 C         141.9382  140.3428  164.8153 C.2     1  UNL1        0.2483
     28 O         143.1335  139.4401  164.7359 O.2     1  UNL1       -0.2701
     29 H         141.1080  142.1929  164.0512 H       1  UNL1        0.1501
     30 C         140.7885  139.9878  165.7110 C.ar    1  UNL1        0.0807
     31 C         140.9032  140.1874  167.1933 C.ar    1  UNL1        0.0106
     32 C         139.7535  139.8324  168.0890 C.ar    1  UNL1        0.0717
     33 C         138.4891  139.2779  167.5024 C.ar    1  UNL1        0.0062
     34 C         138.3745  139.0784  166.0201 C.ar    1  UNL1        0.0297
     35 C         139.5242  139.4333  165.1245 C.ar    1  UNL1        0.1444
     36 F         139.4096  139.2338  163.6423 F       1  UNL1       -0.2040
     37 C         139.8681  140.0320  169.5712 C.3     1  UNL1        0.4186
     38 F         139.9827  140.2315  171.0535 F       1  UNL1       -0.1659
     39 F         141.3191  139.6569  169.5095 F       1  UNL1       -0.1659
     40 F         138.4171  140.4070  169.6329 F       1  UNL1       -0.1659
     41 C         144.4852  143.1956  164.8726 C.3     1  UNL1        0.0022
     42 C         143.9597  143.0834  163.4721 C.3     1  UNL1        0.0269
     43 C         144.3518  144.0991  162.4403 C.3     1  UNL1        0.0022
@<TRIPOS>BOND
     1    41    42    1
     2    42    43    1
     3    42    25    1
     4    25    26    1
     5    26    27   am
     6    27    28    2
     7    27    30    1
     8    30    31   ar
     9    31    32   ar
    10    32    37    1
    11    37    38    1
    12    37    39    1
    13    37    40    1
    14    32    33   ar
    15    33    34   ar
    16    34    35   ar
    17    35    36    1
    18    25     1    1
    19     1     2    2
    20     1     3   am
    21     3     4    1
    22     4     5    1
    23     5     6    1
    24     6     7    1
    25     7     8    1
    26     6     9    1
    27     9    10    2
    28     9    11   am
    29    11    12    1
    30    11    13   am
    31    13    14    2
    32    13    15   am
    33    15    16    1
    34    16    17    2
    35    17    18    1
    36    18    19    2
    37    19    20    1
    38    20    21    2
    39    21    22    1
    40    22    23    2
    41    23    24    1
    42    35    30   ar
    43     8     3    1
    44    24    16    1
    45    15     6    1
    46    23    19    1
    47    26    29    1
@<TRIPOS>MOLECULE
*****
 43 47 0 0 0
SMALL
GASTEIGER

@<TRIPOS>ATOM
      1 C         141.6545  141.6893  161.5143 C.2     1  UNL1        0.2435
      2 O         140.3698  140.9339  161.6838 O.2     1  UNL1       -0.2731
      3 N         142.4696  141.5127  160.2675 N.am    1  UNL1       -0.2781
      4 C         141.9999  140.5807  159.1901 C.3     1  UNL1        0.0956
      5 C         142.8149  140.4042  157.9434 C.3     1  UNL1        0.0490
      6 C         144.0997  141.1596  157.7739 C.3     1  UNL1        0.1377
      7 C         144.5694  142.0916  158.8512 C.3     1  UNL1        0.0490
      8 C         143.7543  142.2682  160.0980 C.3     1  UNL1        0.0956
      9 C         145.3982  141.8440  157.4651 C.2     1  UNL1        0.2491
     10 O         146.1098  142.8251  158.3489 O.2     1  UNL1       -0.2727
     11 N         145.8604  141.3750  156.1173 N.am    1  UNL1       -0.2108
     12 C         147.1152  141.8048  155.4167 C.3     1  UNL1        0.1245
     13 C         144.8474  140.4007  155.5931 C.2     1  UNL1        0.3168
     14 O         144.9114  139.6852  154.2764 O.2     1  UNL1       -0.2516
     15 N         143.7593  140.2676  156.6169 N.am    1  UNL1       -0.2411
     16 C         142.5440  139.3956  156.5037 C.2     1  UNL1        0.0376
     17 C         142.5767  137.9915  157.0303 C.2     1  UNL1        0.0125
     18 C         141.3614  137.1196  156.9171 C.2     1  UNL1        0.0216
     19 C         140.1134  137.6517  156.2773 C.2     1  UNL1        0.1008
     20 N         138.7710  137.0313  156.0265 N.2     1  UNL1       -0.1482
     21 N         137.9087  138.0519  155.3450 N.2     1  UNL1       -0.1467
     22 C         138.7181  139.3032  155.1745 C.2     1  UNL1        0.1198
     23 C         140.0807  139.0559  155.7507 C.2     1  UNL1        0.0238
     24 C         141.2960  139.9278  155.8639 C.3     1  UNL1        0.0710
     25 C         142.1243  142.6213  162.5916 C.3     1  UNL1        0.1489
     26 N         142.5443  142.0761  163.9244 N.am    1  UNL1       -0.2947
     27 C         141.5638  142.0302  165.0588 C.2     1  UNL1        0.2483
     28 O         140.1634  142.5295  164.8603 O.2     1  UNL1       -0.2701
     29 H         143.4635  141.7484  164.0547 H       1  UNL1        0.1501
     30 C         141.9839  141.4850  166.3915 C.ar    1  UNL1        0.0807
     31 C         142.3497  142.4226  167.5039 C.ar    1  UNL1        0.0106
     32 C         142.7697  141.8774  168.8367 C.ar    1  UNL1        0.0717
     33 C         142.8240  140.3946  169.0571 C.ar    1  UNL1        0.0062
     34 C         142.4582  139.4571  167.9448 C.ar    1  UNL1        0.0297
     35 C         142.0381  140.0023  166.6120 C.ar    1  UNL1        0.1444
     36 F         141.6723  139.0649  165.4997 F       1  UNL1       -0.2040
     37 C         143.1355  142.8148  169.9490 C.3     1  UNL1        0.4186
     38 F         143.5014  143.7524  171.0614 F       1  UNL1       -0.1659
     39 F         144.5318  142.2667  169.9518 F       1  UNL1       -0.1659
     40 F         141.7393  143.3630  169.9462 F       1  UNL1       -0.1659
     41 C         143.1233  144.9625  163.1124 C.3     1  UNL1        0.0022
     42 C         142.1740  144.0987  162.3362 C.3     1  UNL1        0.0269
     43 C         141.2743  144.7121  161.3045 C.3     1  UNL1        0.0022
@<TRIPOS>BOND
     1    41    42    1
     2    42    43    1
     3    42    25    1
     4    25    26    1
     5    26    27   am
     6    27    28    2
     7    27    30    1
     8    30    31   ar
     9    31    32   ar
    10    32    37    1
    11    37    38    1
    12    37    39    1
    13    37    40    1
    14    32    33   ar
    15    33    34   ar
    16    34    35   ar
    17    35    36    1
    18    25     1    1
    19     1     2    2
    20     1     3   am
    21     3     4    1
    22     4     5    1
    23     5     6    1
    24     6     7    1
    25     7     8    1
    26     6     9    1
    27     9    10    2
    28     9    11   am
    29    11    12    1
    30    11    13   am
    31    13    14    2
    32    13    15   am
    33    15    16    1
    34    16    17    2
    35    17    18    1
    36    18    19    2
    37    19    20    1
    38    20    21    2
    39    21    22    1
    40    22    23    2
    41    23    24    1
    42    35    30   ar
    43     8     3    1
    44    24    16    1
    45    15     6    1
    46    23    19    1
    47    26    29    1
@<TRIPOS>MOLECULE
*****
 43 47 0 0 0
SMALL
GASTEIGER

@<TRIPOS>ATOM
      1 C         140.7573  139.9125  158.8080 C.2     1  UNL1        0.2435
      2 O         141.7687  140.9540  158.4307 O.2     1  UNL1       -0.2731
      3 N         140.4605  139.6444  160.2537 N.am    1  UNL1       -0.2781
      4 C         141.1750  140.4177  161.3221 C.3     1  UNL1        0.0956
      5 C         140.8781  140.1496  162.7677 C.3     1  UNL1        0.0490
      6 C         139.8667  139.1080  163.1450 C.3     1  UNL1        0.1377
      7 C         139.1522  138.3347  162.0767 C.3     1  UNL1        0.0490
      8 C         139.4491  138.6029  160.6311 C.3     1  UNL1        0.0956
      9 C         138.8861  138.1027  163.6720 C.2     1  UNL1        0.2491
     10 O         138.0301  137.1891  162.8458 O.2     1  UNL1       -0.2727
     11 N         138.9116  138.1715  165.1703 N.am    1  UNL1       -0.2108
     12 C         138.0858  137.3386  166.1053 C.3     1  UNL1        0.1245
     13 C         139.9081  139.2193  165.5692 C.2     1  UNL1        0.3168
     14 O         140.2536  139.6183  166.9732 O.2     1  UNL1       -0.2516
     15 N         140.4984  139.7981  164.3176 N.am    1  UNL1       -0.2411
     16 C         141.5378  140.8775  164.2503 C.2     1  UNL1        0.0376
     17 C         142.9936  140.5219  164.3141 C.2     1  UNL1        0.0125
     18 C         144.0329  141.6014  164.2468 C.2     1  UNL1        0.0216
     19 C         143.6165  143.0365  164.1156 C.2     1  UNL1        0.1008
     20 N         144.4084  144.3072  164.0263 N.2     1  UNL1       -0.1482
     21 N         143.4420  145.4482  163.9072 N.2     1  UNL1       -0.1467
     22 C         142.0528  144.8826  163.9229 C.2     1  UNL1        0.1198
     23 C         142.1607  143.3920  164.0517 C.2     1  UNL1        0.0238
     24 C         141.1213  142.3126  164.1190 C.3     1  UNL1        0.0710
     25 C         140.0428  139.1392  157.7397 C.3     1  UNL1        0.1489
     26 N         140.4178  137.7123  157.4688 N.am    1  UNL1       -0.2947
     27 C         141.5788  137.3992  156.5720 C.2     1  UNL1        0.2483
     28 O         142.3648  138.5130  155.9463 O.2     1  UNL1       -0.2701
     29 H         139.9019  136.9813  157.8795 H       1  UNL1        0.1501
     30 C         141.9538  135.9724  156.3011 C.ar    1  UNL1        0.0807
     31 C         143.0345  135.3148  157.1073 C.ar    1  UNL1        0.0106
     32 C         143.4094  133.8879  156.8364 C.ar    1  UNL1        0.0717
     33 C         142.7037  133.1186  155.7592 C.ar    1  UNL1        0.0062
     34 C         141.6232  133.7761  154.9531 C.ar    1  UNL1        0.0297
     35 C         141.2482  135.2030  155.2240 C.ar    1  UNL1        0.1444
     36 F         140.1676  135.8605  154.4179 F       1  UNL1       -0.2040
     37 C         144.4900  133.2304  157.6425 C.3     1  UNL1        0.4186
     38 F         145.5707  132.5728  158.4487 F       1  UNL1       -0.1659
     39 F         144.9197  132.4540  156.4333 F       1  UNL1       -0.1659
     40 F         144.0603  134.0069  158.8518 F       1  UNL1       -0.1659
     41 C         138.0674  140.8195  157.5832 C.3     1  UNL1        0.0022
     42 C         138.9533  139.7927  156.9422 C.3     1  UNL1        0.0269
     43 C         138.7496  139.4194  155.5038 C.3     1  UNL1        0.0022
@<TRIPOS>BOND
     1    41    42    1
     2    42    43    1
     3    42    25    1
     4    25    26    1
     5    26    27   am
     6    27    28    2
     7    27    30    1
     8    30    31   ar
     9    31    32   ar
    10    32    37    1
    11    37    38    1
    12    37    39    1
    13    37    40    1
    14    32    33   ar
    15    33    34   ar
    16    34    35   ar
    17    35    36    1
    18    25     1    1
    19     1     2    2
    20     1     3   am
    21     3     4    1
    22     4     5    1
    23     5     6    1
    24     6     7    1
    25     7     8    1
    26     6     9    1
    27     9    10    2
    28     9    11   am
    29    11    12    1
    30    11    13   am
    31    13    14    2
    32    13    15   am
    33    15    16    1
    34    16    17    2
    35    17    18    1
    36    18    19    2
    37    19    20    1
    38    20    21    2
    39    21    22    1
    40    22    23    2
    41    23    24    1
    42    35    30   ar
    43     8     3    1
    44    24    16    1
    45    15     6    1
    46    23    19    1
    47    26    29    1
@<TRIPOS>MOLECULE
*****
 43 47 0 0 0
SMALL
GASTEIGER

@<TRIPOS>ATOM
      1 C         139.9062  139.1910  160.5588 C.2     1  UNL1        0.2435
      2 O         139.0680  137.9485  160.4988 O.2     1  UNL1       -0.2731
      3 N         140.9883  139.4154  159.5445 N.am    1  UNL1       -0.2781
      4 C         141.2322  138.3973  158.4703 C.3     1  UNL1        0.0956
      5 C         142.3143  138.6217  157.4561 C.3     1  UNL1        0.0490
      6 C         143.1525  139.8642  157.5161 C.3     1  UNL1        0.1377
      7 C         142.9086  140.8823  158.5903 C.3     1  UNL1        0.0490
      8 C         141.8265  140.6579  159.6045 C.3     1  UNL1        0.0956
      9 C         144.0661  141.0520  157.4497 C.2     1  UNL1        0.2491
     10 O         144.0581  142.2239  158.3860 O.2     1  UNL1       -0.2727
     11 N         144.9893  140.8621  156.2827 N.am    1  UNL1       -0.2108
     12 C         146.0664  141.8108  155.8471 C.3     1  UNL1        0.1245
     13 C         144.6462  139.5569  155.6279 C.2     1  UNL1        0.3168
     14 O         145.3199  138.9713  154.4225 O.2     1  UNL1       -0.2516
     15 N         143.5110  138.9402  156.3901 N.am    1  UNL1       -0.2411
     16 C         142.8502  137.6296  156.0808 C.2     1  UNL1        0.0376
     17 C         141.6720  137.5840  155.1536 C.2     1  UNL1        0.0125
     18 C         141.0113  136.2734  154.8443 C.2     1  UNL1        0.0216
     19 C         141.5288  135.0082  155.4622 C.2     1  UNL1        0.1008
     20 N         141.0861  133.5799  155.3451 N.2     1  UNL1       -0.1482
     21 N         141.9907  132.7427  156.1998 N.2     1  UNL1       -0.1467
     22 C         142.9925  133.6536  156.8452 C.2     1  UNL1        0.1198
     23 C         142.7070  135.0538  156.3893 C.2     1  UNL1        0.0238
     24 C         143.3677  136.3645  156.6986 C.3     1  UNL1        0.0710
     25 C         139.6623  140.2091  161.6330 C.3     1  UNL1        0.1489
     26 N         140.5017  140.2035  162.8761 N.am    1  UNL1       -0.2947
     27 C         140.1353  139.3108  164.0246 C.2     1  UNL1        0.2483
     28 O         138.9294  138.4238  163.9299 O.2     1  UNL1       -0.2701
     29 H         141.2932  140.7857  162.9383 H       1  UNL1        0.1501
     30 C         140.9747  139.3053  165.2677 C.ar    1  UNL1        0.0807
     31 C         142.3283  138.6589  165.2558 C.ar    1  UNL1        0.0106
     32 C         143.1677  138.6533  166.4989 C.ar    1  UNL1        0.0717
     33 C         142.6536  139.2942  167.7539 C.ar    1  UNL1        0.0062
     34 C         141.3001  139.9405  167.7658 C.ar    1  UNL1        0.0297
     35 C         140.4606  139.9461  166.5227 C.ar    1  UNL1        0.1444
     36 F         139.1071  140.5924  166.5346 F       1  UNL1       -0.2040
     37 C         144.5212  138.0070  166.4870 C.3     1  UNL1        0.4186
     38 F         145.8748  137.3606  166.4751 F       1  UNL1       -0.1659
     39 F         144.9122  138.8474  165.3077 F       1  UNL1       -0.1659
     40 F         144.1303  137.1666  167.6663 F       1  UNL1       -0.1659
     41 C         137.6358  141.5201  162.5946 C.3     1  UNL1        0.0022
     42 C         138.5789  141.2328  161.4642 C.3     1  UNL1        0.0269
     43 C         138.4388  141.9691  160.1649 C.3     1  UNL1        0.0022
@<TRIPOS>BOND
     1    41    42    1
     2    42    43    1
     3    42    25    1
     4    25    26    1
     5    26    27   am
     6    27    28    2
     7    27    30    1
     8    30    31   ar
     9    31    32   ar
    10    32    37    1
    11    37    38    1
    12    37    39    1
    13    37    40    1
    14    32    33   ar
    15    33    34   ar
    16    34    35   ar
    17    35    36    1
    18    25     1    1
    19     1     2    2
    20     1     3   am
    21     3     4    1
    22     4     5    1
    23     5     6    1
    24     6     7    1
    25     7     8    1
    26     6     9    1
    27     9    10    2
    28     9    11   am
    29    11    12    1
    30    11    13   am
    31    13    14    2
    32    13    15   am
    33    15    16    1
    34    16    17    2
    35    17    18    1
    36    18    19    2
    37    19    20    1
    38    20    21    2
    39    21    22    1
    40    22    23    2
    41    23    24    1
    42    35    30   ar
    43     8     3    1
    44    24    16    1
    45    15     6    1
    46    23    19    1
    47    26    29    1
