@<TRIPOS>MOLECULE
*****
 44 49 0 0 0
SMALL
GASTEIGER

@<TRIPOS>ATOM
      1 C         139.8239  140.2278  168.5752 C.ar    1  UNL1        0.0769
      2 C         141.1024  140.6206  167.8961 C.ar    1  UNL1        0.0065
      3 C         141.3395  140.2388  166.4650 C.ar    1  UNL1        0.0016
      4 C         140.2981  139.4642  165.7130 C.ar    1  UNL1        0.0191
      5 C         139.0197  139.0714  166.3921 C.ar    1  UNL1        0.0509
      6 C         138.7826  139.4532  167.8232 C.ar    1  UNL1        0.0211
      7 N         138.1829  138.3150  165.4032 N.am    1  UNL1       -0.2803
      8 C         138.9443  138.2404  164.1130 C.2     1  UNL1        0.2507
      9 O         138.4799  137.5728  162.8525 O.2     1  UNL1       -0.2698
     10 C         140.2515  138.9507  164.3045 C.2     1  UNL1        0.0682
     11 C         141.3240  139.1180  163.2691 C.2     1  UNL1        0.0527
     12 H         137.2907  137.9344  165.5715 H       1  UNL1        0.1552
     13 C         142.5848  139.8566  163.6078 C.ar    1  UNL1        0.0136
     14 C         142.6192  141.3545  163.5347 C.ar    1  UNL1        0.0012
     15 C         143.8802  142.0931  163.8734 C.ar    1  UNL1        0.0000
     16 C         145.1066  141.3338  164.2852 C.ar    1  UNL1        0.0000
     17 C         145.0721  139.8360  164.3582 C.ar    1  UNL1        0.0000
     18 C         143.8112  139.0975  164.0196 C.ar    1  UNL1        0.0012
     19 C         139.5868  140.6095  170.0063 C.2     1  UNL1        0.3414
     20 O         139.7208  139.5802  171.0892 O.2     1  UNL1       -0.2449
     21 C         140.2601  143.0971  170.3355 C.3     1  UNL1        0.2560
     22 O         139.2158  142.0205  170.3546 O.3     1  UNL1       -0.4413
     23 N         141.1356  138.5467  161.8951 N.pl3   1  UNL1       -0.3124
     24 H         141.4043  137.6184  161.7068 H       1  UNL1        0.1522
     25 C         140.5378  139.3895  160.8078 C.ar    1  UNL1        0.0484
     26 C         140.8421  139.0863  159.3706 C.ar    1  UNL1        0.0159
     27 C         140.2443  139.9292  158.2834 C.ar    1  UNL1        0.0162
     28 C         139.3421  141.0753  158.6332 C.ar    1  UNL1        0.0539
     29 C         139.0377  141.3785  160.0703 C.ar    1  UNL1        0.0162
     30 C         139.6356  140.5356  161.1576 C.ar    1  UNL1        0.0159
     31 N         138.7443  141.9182  157.5459 N.am    1  UNL1       -0.2589
     32 C         137.4210  141.6874  156.8783 C.2     1  UNL1        0.2294
     33 O         136.4632  140.5734  157.1807 O.2     1  UNL1       -0.2745
     34 C         137.2236  142.7664  155.8552 C.3     1  UNL1        0.0874
     35 C         138.4249  143.6640  155.8905 C.3     1  UNL1        0.0312
     36 C         139.3648  143.1397  156.9354 C.3     1  UNL1        0.0962
     37 C         140.6920  143.7329  157.3050 C.3     1  UNL1        0.0926
     38 N         140.9832  144.0883  158.7329 N.3     1  UNL1       -0.2689
     39 C         142.1156  143.4211  159.4559 C.3     1  UNL1        0.0897
     40 C         142.4068  143.7765  160.8838 C.3     1  UNL1        0.0897
     41 N         141.5657  144.7989  161.5888 N.3     1  UNL1       -0.2691
     42 C         141.8569  145.1543  163.0167 C.3     1  UNL1        0.0897
     43 C         140.4333  145.4660  160.8659 C.3     1  UNL1        0.0897
     44 C         140.1421  145.1107  159.4379 C.3     1  UNL1        0.0897
@<TRIPOS>BOND
     1    21    22    1
     2    22    19    1
     3    19    20    2
     4    19     1    1
     5     1     2   ar
     6     2     3   ar
     7     3     4   ar
     8     4     5   ar
     9     5     6   ar
    10     5     7    1
    11     7     8   am
    12     8     9    2
    13     8    10    1
    14    10    11    2
    15    11    23    1
    16    23    25    1
    17    25    26   ar
    18    26    27   ar
    19    27    28   ar
    20    28    31    1
    21    31    32   am
    22    32    33    2
    23    32    34    1
    24    34    35    1
    25    35    36    1
    26    36    37    1
    27    37    38    1
    28    38    39    1
    29    39    40    1
    30    40    41    1
    31    41    42    1
    32    41    43    1
    33    43    44    1
    34    28    29   ar
    35    29    30   ar
    36    11    13    1
    37    13    14   ar
    38    14    15   ar
    39    15    16   ar
    40    16    17   ar
    41    17    18   ar
    42     6     1   ar
    43    30    25   ar
    44    18    13   ar
    45    10     4    1
    46    36    31    1
    47    44    38    1
    48     7    12    1
    49    23    24    1
@<TRIPOS>MOLECULE
*****
 44 49 0 0 0
SMALL
GASTEIGER

@<TRIPOS>ATOM
      1 C         140.7530  142.0168  168.8113 C.ar    1  UNL1        0.0769
      2 C         141.8709  142.1026  167.8149 C.ar    1  UNL1        0.0065
      3 C         141.8701  141.2118  166.6081 C.ar    1  UNL1        0.0016
      4 C         140.7512  140.2351  166.3977 C.ar    1  UNL1        0.0191
      5 C         139.6333  140.1493  167.3940 C.ar    1  UNL1        0.0509
      6 C         139.6342  141.0401  168.6009 C.ar    1  UNL1        0.0211
      7 N         138.6729  139.0973  166.9238 N.am    1  UNL1       -0.2803
      8 C         139.1974  138.5330  165.6367 C.2     1  UNL1        0.2507
      9 O         138.5509  137.4548  164.8184 O.2     1  UNL1       -0.2698
     10 C         140.4819  139.2362  165.3116 C.2     1  UNL1        0.0682
     11 C         141.3453  138.9847  164.1111 C.2     1  UNL1        0.0527
     12 H         137.8440  138.8251  167.3798 H       1  UNL1        0.1552
     13 C         142.6087  139.7699  163.9181 C.ar    1  UNL1        0.0136
     14 C         143.9149  139.2225  164.4121 C.ar    1  UNL1        0.0012
     15 C         145.1784  140.0078  164.2190 C.ar    1  UNL1        0.0000
     16 C         145.1355  141.3405  163.5320 C.ar    1  UNL1        0.0000
     17 C         143.8292  141.8880  163.0381 C.ar    1  UNL1        0.0000
     18 C         142.5659  141.1027  163.2311 C.ar    1  UNL1        0.0012
     19 C         140.7539  142.9076  170.0181 C.2     1  UNL1        0.3414
     20 O         139.9770  144.1907  170.0038 O.2     1  UNL1       -0.2449
     21 C         141.9722  141.0935  171.4232 C.3     1  UNL1        0.2560
     22 O         141.5317  142.5155  171.2393 O.3     1  UNL1       -0.4413
     23 N         140.9454  137.9479  163.1036 N.pl3   1  UNL1       -0.3124
     24 H         140.4181  137.1656  163.3850 H       1  UNL1        0.1522
     25 C         141.3489  138.1030  161.6672 C.ar    1  UNL1        0.0484
     26 C         140.3708  138.6455  160.6678 C.ar    1  UNL1        0.0159
     27 C         140.7743  138.8006  159.2314 C.ar    1  UNL1        0.0162
     28 C         142.1559  138.4133  158.7944 C.ar    1  UNL1        0.0539
     29 C         143.1341  137.8708  159.7939 C.ar    1  UNL1        0.0162
     30 C         142.7306  137.7156  161.2302 C.ar    1  UNL1        0.0159
     31 N         142.5594  138.5684  157.3581 N.am    1  UNL1       -0.2589
     32 C         143.2679  139.7495  156.7639 C.2     1  UNL1        0.2294
     33 O         143.6973  140.9829  157.5017 O.2     1  UNL1       -0.2745
     34 C         143.4716  139.4807  155.3023 C.3     1  UNL1        0.0874
     35 C         142.8891  138.1335  154.9932 C.3     1  UNL1        0.0312
     36 C         142.3253  137.5696  156.2638 C.3     1  UNL1        0.0962
     37 C         141.6465  136.2404  156.4136 C.3     1  UNL1        0.0926
     38 N         142.4494  134.9756  156.3385 N.3     1  UNL1       -0.2689
     39 C         142.2830  134.0498  155.1701 C.3     1  UNL1        0.0897
     40 C         143.0859  132.7850  155.0950 C.3     1  UNL1        0.0897
     41 N         144.0552  132.4459  156.1884 N.3     1  UNL1       -0.2691
     42 C         144.8581  131.1811  156.1133 C.3     1  UNL1        0.0897
     43 C         144.2216  133.3717  157.3568 C.3     1  UNL1        0.0897
     44 C         143.4187  134.6365  157.4319 C.3     1  UNL1        0.0897
@<TRIPOS>BOND
     1    21    22    1
     2    22    19    1
     3    19    20    2
     4    19     1    1
     5     1     2   ar
     6     2     3   ar
     7     3     4   ar
     8     4     5   ar
     9     5     6   ar
    10     5     7    1
    11     7     8   am
    12     8     9    2
    13     8    10    1
    14    10    11    2
    15    11    23    1
    16    23    25    1
    17    25    26   ar
    18    26    27   ar
    19    27    28   ar
    20    28    31    1
    21    31    32   am
    22    32    33    2
    23    32    34    1
    24    34    35    1
    25    35    36    1
    26    36    37    1
    27    37    38    1
    28    38    39    1
    29    39    40    1
    30    40    41    1
    31    41    42    1
    32    41    43    1
    33    43    44    1
    34    28    29   ar
    35    29    30   ar
    36    11    13    1
    37    13    14   ar
    38    14    15   ar
    39    15    16   ar
    40    16    17   ar
    41    17    18   ar
    42     6     1   ar
    43    30    25   ar
    44    18    13   ar
    45    10     4    1
    46    36    31    1
    47    44    38    1
    48     7    12    1
    49    23    24    1
@<TRIPOS>MOLECULE
*****
 44 49 0 0 0
SMALL
GASTEIGER

@<TRIPOS>ATOM
      1 C         140.7115  141.9277  168.9637 C.ar    1  UNL1        0.0769
      2 C         141.8516  142.1461  168.0138 C.ar    1  UNL1        0.0065
      3 C         141.9260  141.3605  166.7381 C.ar    1  UNL1        0.0016
      4 C         140.8602  140.3565  166.4124 C.ar    1  UNL1        0.0191
      5 C         139.7201  140.1381  167.3623 C.ar    1  UNL1        0.0509
      6 C         139.6457  140.9237  168.6380 C.ar    1  UNL1        0.0211
      7 N         138.8233  139.0879  166.7766 N.am    1  UNL1       -0.2803
      8 C         139.4093  138.6573  165.4647 C.2     1  UNL1        0.2507
      9 O         138.8369  137.6240  164.5401 O.2     1  UNL1       -0.2698
     10 C         140.6681  139.4413  165.2396 C.2     1  UNL1        0.0682
     11 C         141.5756  139.3297  164.0505 C.2     1  UNL1        0.0527
     12 H         137.9955  138.7421  167.1821 H       1  UNL1        0.1552
     13 C         142.8059  140.1833  163.9631 C.ar    1  UNL1        0.0136
     14 C         144.1430  139.6118  164.3312 C.ar    1  UNL1        0.0012
     15 C         145.3733  140.4656  164.2438 C.ar    1  UNL1        0.0000
     16 C         145.2665  141.8908  163.7883 C.ar    1  UNL1        0.0000
     17 C         143.9293  142.4622  163.4202 C.ar    1  UNL1        0.0000
     18 C         142.6991  141.6085  163.5076 C.ar    1  UNL1        0.0012
     19 C         140.6371  142.7133  170.2393 C.2     1  UNL1        0.3414
     20 O         139.9676  144.0555  170.2557 O.2     1  UNL1       -0.2449
     21 C         142.0749  140.9169  171.4459 C.3     1  UNL1        0.2560
     22 O         141.2324  142.1568  171.4987 O.3     1  UNL1       -0.4413
     23 N         141.2528  138.3645  162.9486 N.pl3   1  UNL1       -0.3124
     24 H         141.3224  137.3953  163.1071 H       1  UNL1        0.1522
     25 C         140.8237  138.8758  161.6053 C.ar    1  UNL1        0.0484
     26 C         139.4041  138.6995  161.1540 C.ar    1  UNL1        0.0159
     27 C         138.9751  139.2108  159.8108 C.ar    1  UNL1        0.0162
     28 C         139.9657  139.8986  158.9187 C.ar    1  UNL1        0.0539
     29 C         141.3853  140.0749  159.3699 C.ar    1  UNL1        0.0162
     30 C         141.8143  139.5635  160.7132 C.ar    1  UNL1        0.0159
     31 N         139.5366  140.4099  157.5754 N.am    1  UNL1       -0.2589
     32 C         139.9428  139.8455  156.2463 C.2     1  UNL1        0.2294
     33 O         140.8493  138.6707  156.0271 O.2     1  UNL1       -0.2745
     34 C         139.2834  140.6623  155.1748 C.3     1  UNL1        0.0874
     35 C         138.4696  141.7314  155.8417 C.3     1  UNL1        0.0312
     36 C         138.6261  141.5754  157.3254 C.3     1  UNL1        0.0962
     37 C         137.9848  142.4342  158.3747 C.3     1  UNL1        0.0926
     38 N         138.8279  143.0779  159.4353 N.3     1  UNL1       -0.2689
     39 C         139.9107  144.0418  159.0503 C.3     1  UNL1        0.0897
     40 C         140.7538  144.6855  160.1109 C.3     1  UNL1        0.0897
     41 N         140.5141  144.3653  161.5566 N.3     1  UNL1       -0.2691
     42 C         141.3572  145.0090  162.6172 C.3     1  UNL1        0.0897
     43 C         139.4312  143.4014  161.9416 C.3     1  UNL1        0.0897
     44 C         138.5881  142.7577  160.8810 C.3     1  UNL1        0.0897
@<TRIPOS>BOND
     1    21    22    1
     2    22    19    1
     3    19    20    2
     4    19     1    1
     5     1     2   ar
     6     2     3   ar
     7     3     4   ar
     8     4     5   ar
     9     5     6   ar
    10     5     7    1
    11     7     8   am
    12     8     9    2
    13     8    10    1
    14    10    11    2
    15    11    23    1
    16    23    25    1
    17    25    26   ar
    18    26    27   ar
    19    27    28   ar
    20    28    31    1
    21    31    32   am
    22    32    33    2
    23    32    34    1
    24    34    35    1
    25    35    36    1
    26    36    37    1
    27    37    38    1
    28    38    39    1
    29    39    40    1
    30    40    41    1
    31    41    42    1
    32    41    43    1
    33    43    44    1
    34    28    29   ar
    35    29    30   ar
    36    11    13    1
    37    13    14   ar
    38    14    15   ar
    39    15    16   ar
    40    16    17   ar
    41    17    18   ar
    42     6     1   ar
    43    30    25   ar
    44    18    13   ar
    45    10     4    1
    46    36    31    1
    47    44    38    1
    48     7    12    1
    49    23    24    1
@<TRIPOS>MOLECULE
*****
 44 49 0 0 0
SMALL
GASTEIGER

@<TRIPOS>ATOM
      1 C         140.7177  142.0324  168.8244 C.ar    1  UNL1        0.0769
      2 C         141.8632  142.0925  167.8579 C.ar    1  UNL1        0.0065
      3 C         141.9008  141.1639  166.6806 C.ar    1  UNL1        0.0016
      4 C         140.7928  140.1750  166.4697 C.ar    1  UNL1        0.0191
      5 C         139.6473  140.1149  167.4361 C.ar    1  UNL1        0.0509
      6 C         139.6097  141.0435  168.6135 C.ar    1  UNL1        0.0211
      7 N         138.7055  139.0433  166.9725 N.am    1  UNL1       -0.2803
      8 C         139.2690  138.4413  165.7195 C.2     1  UNL1        0.2507
      9 O         138.6509  137.3342  164.9180 O.2     1  UNL1       -0.2698
     10 C         140.5590  139.1407  165.4087 C.2     1  UNL1        0.0682
     11 C         141.4575  138.8559  164.2419 C.2     1  UNL1        0.0527
     12 H         137.8650  138.7812  167.4132 H       1  UNL1        0.1552
     13 C         142.7224  139.6414  164.0600 C.ar    1  UNL1        0.0136
     14 C         144.0244  139.0941  164.5651 C.ar    1  UNL1        0.0012
     15 C         145.2893  139.8797  164.3831 C.ar    1  UNL1        0.0000
     16 C         145.2521  141.2125  163.6959 C.ar    1  UNL1        0.0000
     17 C         143.9501  141.7598  163.1908 C.ar    1  UNL1        0.0000
     18 C         142.6853  140.9743  163.3728 C.ar    1  UNL1        0.0012
     19 C         140.6802  142.9610  170.0017 C.2     1  UNL1        0.3414
     20 O         140.1685  144.3613  169.8365 O.2     1  UNL1       -0.2449
     21 C         141.8924  141.1891  171.4649 C.3     1  UNL1        0.2560
     22 O         141.1543  142.4894  171.3444 O.3     1  UNL1       -0.4413
     23 N         141.0912  137.7855  163.2570 N.pl3   1  UNL1       -0.3124
     24 H         140.7741  136.9101  163.5767 H       1  UNL1        0.1522
     25 C         141.2081  138.0491  161.7849 C.ar    1  UNL1        0.0484
     26 C         142.5498  137.9907  161.1167 C.ar    1  UNL1        0.0159
     27 C         142.6667  138.2542  159.6447 C.ar    1  UNL1        0.0162
     28 C         141.4419  138.5761  158.8408 C.ar    1  UNL1        0.0539
     29 C         140.1002  138.6345  159.5090 C.ar    1  UNL1        0.0162
     30 C         139.9834  138.3710  160.9810 C.ar    1  UNL1        0.0159
     31 N         141.5588  138.8396  157.3688 N.am    1  UNL1       -0.2589
     32 C         141.4799  137.8109  156.2799 C.2     1  UNL1        0.2294
     33 O         141.2704  136.3381  156.4719 O.2     1  UNL1       -0.2745
     34 C         141.6475  138.5136  154.9653 C.3     1  UNL1        0.0874
     35 C         141.8298  139.9766  155.2417 C.3     1  UNL1        0.0312
     36 C         141.7751  140.1781  156.7272 C.3     1  UNL1        0.0962
     37 C         141.9124  141.4880  157.4449 C.3     1  UNL1        0.0926
     38 N         140.9350  141.8602  158.5202 N.3     1  UNL1       -0.2689
     39 C         141.4153  142.0958  159.9215 C.3     1  UNL1        0.0897
     40 C         140.4379  142.4680  160.9968 C.3     1  UNL1        0.0897
     41 N         138.9801  142.6045  160.6707 N.3     1  UNL1       -0.2691
     42 C         138.0027  142.9766  161.7460 C.3     1  UNL1        0.0897
     43 C         138.4998  142.3688  159.2694 C.3     1  UNL1        0.0897
     44 C         139.4772  141.9967  158.1941 C.3     1  UNL1        0.0897
@<TRIPOS>BOND
     1    21    22    1
     2    22    19    1
     3    19    20    2
     4    19     1    1
     5     1     2   ar
     6     2     3   ar
     7     3     4   ar
     8     4     5   ar
     9     5     6   ar
    10     5     7    1
    11     7     8   am
    12     8     9    2
    13     8    10    1
    14    10    11    2
    15    11    23    1
    16    23    25    1
    17    25    26   ar
    18    26    27   ar
    19    27    28   ar
    20    28    31    1
    21    31    32   am
    22    32    33    2
    23    32    34    1
    24    34    35    1
    25    35    36    1
    26    36    37    1
    27    37    38    1
    28    38    39    1
    29    39    40    1
    30    40    41    1
    31    41    42    1
    32    41    43    1
    33    43    44    1
    34    28    29   ar
    35    29    30   ar
    36    11    13    1
    37    13    14   ar
    38    14    15   ar
    39    15    16   ar
    40    16    17   ar
    41    17    18   ar
    42     6     1   ar
    43    30    25   ar
    44    18    13   ar
    45    10     4    1
    46    36    31    1
    47    44    38    1
    48     7    12    1
    49    23    24    1
@<TRIPOS>MOLECULE
*****
 44 49 0 0 0
SMALL
GASTEIGER

@<TRIPOS>ATOM
      1 C         140.4749  142.1146  169.1860 C.ar    1  UNL1        0.0769
      2 C         140.3830  143.0345  168.0049 C.ar    1  UNL1        0.0065
      3 C         139.8973  142.5138  166.6847 C.ar    1  UNL1        0.0016
      4 C         139.5034  141.0731  166.5457 C.ar    1  UNL1        0.0191
      5 C         139.5952  140.1532  167.7269 C.ar    1  UNL1        0.0509
      6 C         140.0810  140.6740  169.0471 C.ar    1  UNL1        0.0211
      7 N         139.1406  138.7919  167.2907 N.am    1  UNL1       -0.2803
      8 C         138.7678  138.8705  165.8399 C.2     1  UNL1        0.2507
      9 O         138.2599  137.7381  164.9974 O.2     1  UNL1       -0.2698
     10 C         138.9920  140.2804  165.3795 C.2     1  UNL1        0.0682
     11 C         138.7477  140.8054  163.9958 C.2     1  UNL1        0.0527
     12 H         139.0949  137.9880  167.8572 H       1  UNL1        0.1552
     13 C         139.0192  142.2468  163.6816 C.ar    1  UNL1        0.0136
     14 C         137.9169  143.2583  163.7886 C.ar    1  UNL1        0.0012
     15 C         138.1885  144.6998  163.4744 C.ar    1  UNL1        0.0000
     16 C         139.5625  145.1295  163.0532 C.ar    1  UNL1        0.0000
     17 C         140.6649  144.1180  162.9462 C.ar    1  UNL1        0.0000
     18 C         140.3933  142.6766  163.2604 C.ar    1  UNL1        0.0012
     19 C         140.9606  142.6353  170.5062 C.2     1  UNL1        0.3414
     20 O         140.3799  142.1022  171.7823 O.2     1  UNL1       -0.2449
     21 C         143.4681  143.2929  170.6790 C.3     1  UNL1        0.2560
     22 O         142.0271  143.6891  170.5503 O.3     1  UNL1       -0.4413
     23 N         138.2318  139.8890  162.9261 N.pl3   1  UNL1       -0.3124
     24 H         137.3537  139.4563  163.0300 H       1  UNL1        0.1522
     25 C         139.0540  139.6320  161.6981 C.ar    1  UNL1        0.0484
     26 C         139.9984  138.4673  161.6581 C.ar    1  UNL1        0.0159
     27 C         140.8206  138.2102  160.4301 C.ar    1  UNL1        0.0162
     28 C         140.6983  139.1177  159.2421 C.ar    1  UNL1        0.0539
     29 C         139.7538  140.2824  159.2821 C.ar    1  UNL1        0.0162
     30 C         138.9317  140.5395  160.5101 C.ar    1  UNL1        0.0159
     31 N         141.5204  138.8606  158.0141 N.am    1  UNL1       -0.2589
     32 C         141.1456  137.9597  156.8748 C.2     1  UNL1        0.2294
     33 O         139.8830  137.1577  156.7635 O.2     1  UNL1       -0.2745
     34 C         142.2553  138.0016  155.8664 C.3     1  UNL1        0.0874
     35 C         143.3158  138.9284  156.3823 C.3     1  UNL1        0.0312
     36 C         142.8616  139.4594  157.7097 C.3     1  UNL1        0.0962
     37 C         143.6162  140.4203  158.5799 C.3     1  UNL1        0.0926
     38 N         143.7523  140.1532  160.0497 N.3     1  UNL1       -0.2689
     39 C         144.0932  138.7747  160.5330 C.3     1  UNL1        0.0897
     40 C         144.2293  138.5076  162.0028 C.3     1  UNL1        0.0897
     41 N         144.0246  139.6189  162.9892 N.3     1  UNL1       -0.2691
     42 C         144.1607  139.3518  164.4589 C.3     1  UNL1        0.0897
     43 C         143.6837  140.9974  162.5058 C.3     1  UNL1        0.0897
     44 C         143.5476  141.2645  161.0361 C.3     1  UNL1        0.0897
@<TRIPOS>BOND
     1    21    22    1
     2    22    19    1
     3    19    20    2
     4    19     1    1
     5     1     2   ar
     6     2     3   ar
     7     3     4   ar
     8     4     5   ar
     9     5     6   ar
    10     5     7    1
    11     7     8   am
    12     8     9    2
    13     8    10    1
    14    10    11    2
    15    11    23    1
    16    23    25    1
    17    25    26   ar
    18    26    27   ar
    19    27    28   ar
    20    28    31    1
    21    31    32   am
    22    32    33    2
    23    32    34    1
    24    34    35    1
    25    35    36    1
    26    36    37    1
    27    37    38    1
    28    38    39    1
    29    39    40    1
    30    40    41    1
    31    41    42    1
    32    41    43    1
    33    43    44    1
    34    28    29   ar
    35    29    30   ar
    36    11    13    1
    37    13    14   ar
    38    14    15   ar
    39    15    16   ar
    40    16    17   ar
    41    17    18   ar
    42     6     1   ar
    43    30    25   ar
    44    18    13   ar
    45    10     4    1
    46    36    31    1
    47    44    38    1
    48     7    12    1
    49    23    24    1
@<TRIPOS>MOLECULE
*****
 44 49 0 0 0
SMALL
GASTEIGER

@<TRIPOS>ATOM
      1 C         140.7561  141.5440  168.9790 C.ar    1  UNL1        0.0769
      2 C         140.8139  142.5970  167.9124 C.ar    1  UNL1        0.0065
      3 C         141.6628  142.3847  166.6941 C.ar    1  UNL1        0.0016
      4 C         142.4537  141.1193  166.5423 C.ar    1  UNL1        0.0191
      5 C         142.3959  140.0662  167.6089 C.ar    1  UNL1        0.0509
      6 C         141.5470  140.2786  168.8273 C.ar    1  UNL1        0.0211
      7 N         143.2784  138.9293  167.1863 N.am    1  UNL1       -0.2803
      8 C         143.8817  139.2798  165.8584 C.2     1  UNL1        0.2507
      9 O         144.8285  138.4265  165.0674 O.2     1  UNL1       -0.2698
     10 C         143.3720  140.6332  165.4604 C.2     1  UNL1        0.0682
     11 C         143.7196  141.3711  164.2016 C.2     1  UNL1        0.0527
     12 H         143.4343  138.0989  167.6916 H       1  UNL1        0.1552
     13 C         143.1291  142.7246  163.9382 C.ar    1  UNL1        0.0136
     14 C         141.7631  142.8415  163.3298 C.ar    1  UNL1        0.0012
     15 C         141.1726  144.1951  163.0664 C.ar    1  UNL1        0.0000
     16 C         141.9483  145.4317  163.4114 C.ar    1  UNL1        0.0000
     17 C         143.3144  145.3148  164.0198 C.ar    1  UNL1        0.0000
     18 C         143.9048  143.9613  164.2831 C.ar    1  UNL1        0.0012
     19 C         139.9072  141.7564  170.1974 C.2     1  UNL1        0.3414
     20 O         139.7847  143.1259  170.7966 O.2     1  UNL1       -0.2449
     21 C         138.1151  139.8818  170.0423 C.3     1  UNL1        0.2560
     22 O         139.1809  140.5991  170.8164 O.3     1  UNL1       -0.4413
     23 N         144.6577  140.7555  163.2061 N.pl3   1  UNL1       -0.3124
     24 H         145.6082  140.6369  163.4334 H       1  UNL1        0.1522
     25 C         144.1476  140.3207  161.8642 C.ar    1  UNL1        0.0484
     26 C         143.8450  138.8737  161.6097 C.ar    1  UNL1        0.0159
     27 C         143.3349  138.4389  160.2678 C.ar    1  UNL1        0.0162
     28 C         143.1273  139.4509  159.1804 C.ar    1  UNL1        0.0539
     29 C         143.4299  140.8979  159.4348 C.ar    1  UNL1        0.0162
     30 C         143.9401  141.3327  160.7767 C.ar    1  UNL1        0.0159
     31 N         142.6172  139.0161  157.8385 N.am    1  UNL1       -0.2589
     32 C         143.3808  139.0610  156.5481 C.2     1  UNL1        0.2294
     33 O         144.7884  139.5486  156.3731 O.2     1  UNL1       -0.2745
     34 C         142.4894  138.5327  155.4635 C.3     1  UNL1        0.0874
     35 C         141.1750  138.1613  156.0835 C.3     1  UNL1        0.0312
     36 C         141.2540  138.4601  157.5514 C.3     1  UNL1        0.0962
     37 C         140.1616  138.2412  158.5557 C.3     1  UNL1        0.0926
     38 N         139.6288  139.3979  159.3484 N.3     1  UNL1       -0.2689
     39 C         139.1521  140.6335  158.6442 C.3     1  UNL1        0.0897
     40 C         138.6193  141.7902  159.4368 C.3     1  UNL1        0.0897
     41 N         138.5632  141.7112  160.9337 N.3     1  UNL1       -0.2691
     42 C         138.0304  142.8679  161.7264 C.3     1  UNL1        0.0897
     43 C         139.0399  140.4756  161.6379 C.3     1  UNL1        0.0897
     44 C         139.5727  139.3189  160.8452 C.3     1  UNL1        0.0897
@<TRIPOS>BOND
     1    21    22    1
     2    22    19    1
     3    19    20    2
     4    19     1    1
     5     1     2   ar
     6     2     3   ar
     7     3     4   ar
     8     4     5   ar
     9     5     6   ar
    10     5     7    1
    11     7     8   am
    12     8     9    2
    13     8    10    1
    14    10    11    2
    15    11    23    1
    16    23    25    1
    17    25    26   ar
    18    26    27   ar
    19    27    28   ar
    20    28    31    1
    21    31    32   am
    22    32    33    2
    23    32    34    1
    24    34    35    1
    25    35    36    1
    26    36    37    1
    27    37    38    1
    28    38    39    1
    29    39    40    1
    30    40    41    1
    31    41    42    1
    32    41    43    1
    33    43    44    1
    34    28    29   ar
    35    29    30   ar
    36    11    13    1
    37    13    14   ar
    38    14    15   ar
    39    15    16   ar
    40    16    17   ar
    41    17    18   ar
    42     6     1   ar
    43    30    25   ar
    44    18    13   ar
    45    10     4    1
    46    36    31    1
    47    44    38    1
    48     7    12    1
    49    23    24    1
@<TRIPOS>MOLECULE
*****
 44 49 0 0 0
SMALL
GASTEIGER

@<TRIPOS>ATOM
      1 C         140.1991  141.1284  168.0276 C.ar    1  UNL1        0.0769
      2 C         140.1198  142.2408  167.0245 C.ar    1  UNL1        0.0065
      3 C         139.7498  141.9428  165.6018 C.ar    1  UNL1        0.0016
      4 C         139.4591  140.5324  165.1820 C.ar    1  UNL1        0.0191
      5 C         139.5384  139.4200  166.1851 C.ar    1  UNL1        0.0509
      6 C         139.9083  139.7180  167.6079 C.ar    1  UNL1        0.0211
      7 N         139.2000  138.1381  165.4834 N.am    1  UNL1       -0.2803
      8 C         138.9117  138.4583  164.0467 C.2     1  UNL1        0.2507
      9 O         138.5302  137.4719  162.9828 O.2     1  UNL1       -0.2698
     10 C         139.0718  139.9381  163.8604 C.2     1  UNL1        0.0682
     11 C         138.8786  140.6913  162.5777 C.2     1  UNL1        0.0527
     12 H         139.1721  137.2436  165.8938 H       1  UNL1        0.1552
     13 C         139.0749  142.1780  162.5440 C.ar    1  UNL1        0.0136
     14 C         137.9158  143.0937  162.8045 C.ar    1  UNL1        0.0012
     15 C         138.1123  144.5805  162.7708 C.ar    1  UNL1        0.0000
     16 C         139.4678  145.1514  162.4766 C.ar    1  UNL1        0.0000
     17 C         140.6269  144.2357  162.2160 C.ar    1  UNL1        0.0000
     18 C         140.4304  142.7490  162.2498 C.ar    1  UNL1        0.0012
     19 C         140.5690  141.4264  169.4504 C.2     1  UNL1        0.3414
     20 O         139.5023  141.7758  170.4453 O.2     1  UNL1       -0.2449
     21 C         143.0124  142.2834  169.2369 C.3     1  UNL1        0.2560
     22 O         142.0058  141.3749  169.8783 O.3     1  UNL1       -0.4413
     23 N         138.4890  139.9578  161.3286 N.pl3   1  UNL1       -0.3124
     24 H         137.5580  139.6645  161.2001 H       1  UNL1        0.1522
     25 C         139.5178  139.6712  160.2754 C.ar    1  UNL1        0.0484
     26 C         140.9566  139.4945  160.6608 C.ar    1  UNL1        0.0159
     27 C         141.9854  139.2079  159.6075 C.ar    1  UNL1        0.0162
     28 C         141.5755  139.0979  158.1688 C.ar    1  UNL1        0.0539
     29 C         140.1367  139.2746  157.7834 C.ar    1  UNL1        0.0162
     30 C         139.1079  139.5612  158.8367 C.ar    1  UNL1        0.0159
     31 N         142.6043  138.8113  157.1156 N.am    1  UNL1       -0.2589
     32 C         143.5842  139.7957  156.5491 C.2     1  UNL1        0.2294
     33 O         143.7072  141.2396  156.9364 O.2     1  UNL1       -0.2745
     34 C         144.4193  139.0827  155.5273 C.3     1  UNL1        0.0874
     35 C         143.9557  137.6577  155.4622 C.3     1  UNL1        0.0312
     36 C         142.8339  137.4899  156.4439 C.3     1  UNL1        0.0962
     37 C         142.0751  136.2232  156.7075 C.3     1  UNL1        0.0926
     38 N         142.7382  134.8941  156.4980 N.3     1  UNL1       -0.2689
     39 C         143.5655  134.2879  157.5925 C.3     1  UNL1        0.0897
     40 C         144.2287  132.9589  157.3830 C.3     1  UNL1        0.0897
     41 N         144.0646  132.2361  156.0789 N.3     1  UNL1       -0.2691
     42 C         144.7278  130.9070  155.8694 C.3     1  UNL1        0.0897
     43 C         143.2374  132.8423  154.9843 C.3     1  UNL1        0.0897
     44 C         142.5742  134.1713  155.1939 C.3     1  UNL1        0.0897
@<TRIPOS>BOND
     1    21    22    1
     2    22    19    1
     3    19    20    2
     4    19     1    1
     5     1     2   ar
     6     2     3   ar
     7     3     4   ar
     8     4     5   ar
     9     5     6   ar
    10     5     7    1
    11     7     8   am
    12     8     9    2
    13     8    10    1
    14    10    11    2
    15    11    23    1
    16    23    25    1
    17    25    26   ar
    18    26    27   ar
    19    27    28   ar
    20    28    31    1
    21    31    32   am
    22    32    33    2
    23    32    34    1
    24    34    35    1
    25    35    36    1
    26    36    37    1
    27    37    38    1
    28    38    39    1
    29    39    40    1
    30    40    41    1
    31    41    42    1
    32    41    43    1
    33    43    44    1
    34    28    29   ar
    35    29    30   ar
    36    11    13    1
    37    13    14   ar
    38    14    15   ar
    39    15    16   ar
    40    16    17   ar
    41    17    18   ar
    42     6     1   ar
    43    30    25   ar
    44    18    13   ar
    45    10     4    1
    46    36    31    1
    47    44    38    1
    48     7    12    1
    49    23    24    1
@<TRIPOS>MOLECULE
*****
 44 49 0 0 0
SMALL
GASTEIGER

@<TRIPOS>ATOM
      1 C         141.9205  140.8340  168.5528 C.ar    1  UNL1        0.0769
      2 C         141.7612  142.0477  167.6859 C.ar    1  UNL1        0.0065
      3 C         142.2403  142.0225  166.2647 C.ar    1  UNL1        0.0016
      4 C         142.8789  140.7836  165.7104 C.ar    1  UNL1        0.0191
      5 C         143.0383  139.5699  166.5773 C.ar    1  UNL1        0.0509
      6 C         142.5591  139.5951  167.9985 C.ar    1  UNL1        0.0211
      7 N         143.7013  138.5006  165.7605 N.am    1  UNL1       -0.2803
      8 C         143.9517  139.0535  164.3888 C.2     1  UNL1        0.2507
      9 O         144.5970  138.3236  163.2482 O.2     1  UNL1       -0.2698
     10 C         143.4434  140.4644  164.3578 C.2     1  UNL1        0.0682
     11 C         143.4912  141.3932  163.1810 C.2     1  UNL1        0.0527
     12 H         143.9317  137.5949  166.0703 H       1  UNL1        0.1552
     13 C         142.9410  142.7836  163.2999 C.ar    1  UNL1        0.0136
     14 C         143.8241  143.9023  163.7672 C.ar    1  UNL1        0.0012
     15 C         143.2738  145.2927  163.8861 C.ar    1  UNL1        0.0000
     16 C         141.8403  145.5643  163.5376 C.ar    1  UNL1        0.0000
     17 C         140.9572  144.4455  163.0703 C.ar    1  UNL1        0.0000
     18 C         141.5075  143.0552  162.9514 C.ar    1  UNL1        0.0012
     19 C         141.4414  140.8592  169.9740 C.2     1  UNL1        0.3414
     20 O         142.3624  140.4462  171.0835 O.2     1  UNL1       -0.2449
     21 C         139.7728  142.7147  170.6971 C.3     1  UNL1        0.2560
     22 O         140.0411  141.2974  170.2857 O.3     1  UNL1       -0.4413
     23 N         144.0893  140.9317  161.8851 N.pl3   1  UNL1       -0.3124
     24 H         145.0666  140.9314  161.7665 H       1  UNL1        0.1522
     25 C         143.1983  140.4705  160.7700 C.ar    1  UNL1        0.0484
     26 C         142.2684  139.3129  160.9828 C.ar    1  UNL1        0.0159
     27 C         141.3775  138.8518  159.8677 C.ar    1  UNL1        0.0162
     28 C         141.4163  139.5482  158.5397 C.ar    1  UNL1        0.0539
     29 C         142.3462  140.7058  158.3269 C.ar    1  UNL1        0.0162
     30 C         143.2372  141.1669  159.4420 C.ar    1  UNL1        0.0159
     31 N         140.5254  139.0870  157.4246 N.am    1  UNL1       -0.2589
     32 C         140.6978  137.8333  156.6193 C.2     1  UNL1        0.2294
     33 O         141.7915  136.8207  156.7876 O.2     1  UNL1       -0.2745
     34 C         139.5846  137.7701  155.6160 C.3     1  UNL1        0.0874
     35 C         138.7240  138.9846  155.8013 C.3     1  UNL1        0.0312
     36 C         139.3055  139.7986  156.9191 C.3     1  UNL1        0.0962
     37 C         138.7624  141.0962  157.4399 C.3     1  UNL1        0.0926
     38 N         138.4178  141.2357  158.8931 N.3     1  UNL1       -0.2689
     39 C         138.6260  142.5471  159.5908 C.3     1  UNL1        0.0897
     40 C         138.2813  142.6866  161.0440 C.3     1  UNL1        0.0897
     41 N         137.7285  141.5147  161.7995 N.3     1  UNL1       -0.2691
     42 C         137.3839  141.6542  163.2527 C.3     1  UNL1        0.0897
     43 C         137.5203  140.2032  161.1019 C.3     1  UNL1        0.0897
     44 C         137.8649  140.0637  159.6487 C.3     1  UNL1        0.0897
@<TRIPOS>BOND
     1    21    22    1
     2    22    19    1
     3    19    20    2
     4    19     1    1
     5     1     2   ar
     6     2     3   ar
     7     3     4   ar
     8     4     5   ar
     9     5     6   ar
    10     5     7    1
    11     7     8   am
    12     8     9    2
    13     8    10    1
    14    10    11    2
    15    11    23    1
    16    23    25    1
    17    25    26   ar
    18    26    27   ar
    19    27    28   ar
    20    28    31    1
    21    31    32   am
    22    32    33    2
    23    32    34    1
    24    34    35    1
    25    35    36    1
    26    36    37    1
    27    37    38    1
    28    38    39    1
    29    39    40    1
    30    40    41    1
    31    41    42    1
    32    41    43    1
    33    43    44    1
    34    28    29   ar
    35    29    30   ar
    36    11    13    1
    37    13    14   ar
    38    14    15   ar
    39    15    16   ar
    40    16    17   ar
    41    17    18   ar
    42     6     1   ar
    43    30    25   ar
    44    18    13   ar
    45    10     4    1
    46    36    31    1
    47    44    38    1
    48     7    12    1
    49    23    24    1
@<TRIPOS>MOLECULE
*****
 44 49 0 0 0
SMALL
GASTEIGER

@<TRIPOS>ATOM
      1 C         142.7351  141.1070  167.5718 C.ar    1  UNL1        0.0769
      2 C         142.1505  140.1912  166.5377 C.ar    1  UNL1        0.0065
      3 C         142.2497  140.5424  165.0828 C.ar    1  UNL1        0.0016
      4 C         142.9336  141.8093  164.6620 C.ar    1  UNL1        0.0191
      5 C         143.5183  142.7251  165.6961 C.ar    1  UNL1        0.0509
      6 C         143.4191  142.3739  167.1510 C.ar    1  UNL1        0.0211
      7 N         144.1290  143.8966  164.9857 N.am    1  UNL1       -0.2803
      8 C         143.9218  143.7048  163.5126 C.2     1  UNL1        0.2507
      9 O         144.3739  144.6391  162.4295 O.2     1  UNL1       -0.2698
     10 C         143.1830  142.4148  163.3125 C.2     1  UNL1        0.0682
     11 C         142.7666  141.8325  161.9943 C.2     1  UNL1        0.0527
     12 H         144.5857  144.6577  165.4116 H       1  UNL1        0.1552
     13 C         142.0295  140.5269  161.9504 C.ar    1  UNL1        0.0136
     14 C         142.7879  139.2424  161.7920 C.ar    1  UNL1        0.0012
     15 C         142.0507  137.9367  161.7481 C.ar    1  UNL1        0.0000
     16 C         140.5552  137.9156  161.8625 C.ar    1  UNL1        0.0000
     17 C         139.7969  139.2000  162.0209 C.ar    1  UNL1        0.0000
     18 C         140.5340  140.5056  162.0648 C.ar    1  UNL1        0.0012
     19 C         142.6359  140.7558  169.0268 C.2     1  UNL1        0.3414
     20 O         142.9330  139.3581  169.4829 O.2     1  UNL1       -0.2449
     21 C         141.2208  141.4854  171.0798 C.3     1  UNL1        0.2560
     22 O         142.2396  141.8024  170.0256 O.3     1  UNL1       -0.4413
     23 N         143.0873  142.5559  160.7200 N.pl3   1  UNL1       -0.3124
     24 H         144.0080  142.8561  160.5427 H       1  UNL1        0.1522
     25 C         142.0052  142.8219  159.7158 C.ar    1  UNL1        0.0484
     26 C         142.1417  142.3095  158.3127 C.ar    1  UNL1        0.0159
     27 C         141.0596  142.5756  157.3085 C.ar    1  UNL1        0.0162
     28 C         139.8410  143.3539  157.7074 C.ar    1  UNL1        0.0539
     29 C         139.7046  143.8663  159.1106 C.ar    1  UNL1        0.0162
     30 C         140.7866  143.6003  160.1147 C.ar    1  UNL1        0.0159
     31 N         138.7590  143.6199  156.7033 N.am    1  UNL1       -0.2589
     32 C         138.6660  144.8164  155.8034 C.2     1  UNL1        0.2294
     33 O         139.6387  145.9570  155.7497 O.2     1  UNL1       -0.2745
     34 C         137.4294  144.6721  154.9667 C.3     1  UNL1        0.0874
     35 C         136.7582  143.3864  155.3494 C.3     1  UNL1        0.0312
     36 C         137.5799  142.7361  156.4227 C.3     1  UNL1        0.0962
     37 C         137.2760  141.4312  157.0970 C.3     1  UNL1        0.0926
     38 N         138.2319  140.2820  156.9723 N.3     1  UNL1       -0.2689
     39 C         138.4943  139.6669  155.6296 C.3     1  UNL1        0.0897
     40 C         139.4503  138.5177  155.5050 C.3     1  UNL1        0.0897
     41 N         140.1439  137.9836  156.7230 N.3     1  UNL1       -0.2691
     42 C         141.0998  136.8344  156.5983 C.3     1  UNL1        0.0897
     43 C         139.8815  138.5986  158.0657 C.3     1  UNL1        0.0897
     44 C         138.9256  139.7478  158.1903 C.3     1  UNL1        0.0897
@<TRIPOS>BOND
     1    21    22    1
     2    22    19    1
     3    19    20    2
     4    19     1    1
     5     1     2   ar
     6     2     3   ar
     7     3     4   ar
     8     4     5   ar
     9     5     6   ar
    10     5     7    1
    11     7     8   am
    12     8     9    2
    13     8    10    1
    14    10    11    2
    15    11    23    1
    16    23    25    1
    17    25    26   ar
    18    26    27   ar
    19    27    28   ar
    20    28    31    1
    21    31    32   am
    22    32    33    2
    23    32    34    1
    24    34    35    1
    25    35    36    1
    26    36    37    1
    27    37    38    1
    28    38    39    1
    29    39    40    1
    30    40    41    1
    31    41    42    1
    32    41    43    1
    33    43    44    1
    34    28    29   ar
    35    29    30   ar
    36    11    13    1
    37    13    14   ar
    38    14    15   ar
    39    15    16   ar
    40    16    17   ar
    41    17    18   ar
    42     6     1   ar
    43    30    25   ar
    44    18    13   ar
    45    10     4    1
    46    36    31    1
    47    44    38    1
    48     7    12    1
    49    23    24    1
