@<TRIPOS>MOLECULE
*****
 31 36 0 0 0
SMALL
GASTEIGER

@<TRIPOS>ATOM
      1 C         142.5584  136.7059  157.7517 C.3     1  UNL1        0.1161
      2 C         143.2930  135.4141  157.5482 C.3     1  UNL1        0.0510
      3 C         142.9353  134.5212  156.3972 C.2     1  UNL1       -0.0044
      4 C         141.8429  134.9202  155.4498 C.2     1  UNL1        0.0690
      5 N         141.7123  133.8438  154.4133 N.2     1  UNL1       -0.2526
      6 C         142.7240  132.7796  154.7201 C.2     1  UNL1        0.0627
      7 C         143.0545  131.4835  154.0413 C.3     1  UNL1        0.0717
      8 C         144.1409  130.6060  154.5887 C.2     1  UNL1       -0.0198
      9 C         144.8968  131.0246  155.8149 C.2     1  UNL1       -0.0042
     10 C         144.5662  132.3208  156.4936 C.2     1  UNL1        0.0006
     11 C         143.4798  133.1983  155.9462 C.2     1  UNL1        0.0111
     12 C         141.1083  136.2120  155.6534 C.3     1  UNL1        0.0972
     13 N         141.4661  137.1049  156.8044 N.3     1  UNL1       -0.2887
     14 H         140.6198  137.2196  157.3622 H       1  UNL1        0.1239
     15 C         143.2401  138.4437  161.1548 C.ar    1  UNL1        0.0769
     16 C         143.6934  139.5018  160.1932 C.ar    1  UNL1        0.1171
     17 N         143.4932  138.9797  158.8013 N.ar    1  UNL1       -0.2282
     18 C         142.9162  137.5989  158.9028 C.ar    1  UNL1        0.1318
     19 N         142.7598  137.2675  160.3573 N.ar    1  UNL1       -0.3397
     20 H         142.4043  136.4259  160.7242 H       1  UNL1        0.1671
     21 C         143.3092  138.7447  165.6442 C.ar    1  UNL1        0.0000
     22 C         144.4427  139.3052  164.8375 C.ar    1  UNL1        0.0000
     23 C         144.4197  139.2049  163.3410 C.ar    1  UNL1        0.0015
     24 C         143.2631  138.5440  162.6514 C.ar    1  UNL1        0.0172
     25 C         142.1296  137.9835  163.4581 C.ar    1  UNL1        0.0015
     26 C         142.1526  138.0838  164.9546 C.ar    1  UNL1        0.0000
     27 C         140.0160  136.6110  154.7060 C.3     1  UNL1        0.0523
     28 C         140.0670  136.5131  153.2100 C.3     1  UNL1        0.0363
     29 C         138.7633  137.0196  152.6677 C.3     1  UNL1        0.1423
     30 O         137.9067  137.4305  153.8284 O.3     1  UNL1       -0.3537
     31 C         138.6809  137.1780  155.0882 C.3     1  UNL1        0.1439
@<TRIPOS>BOND
     1    21    22   ar
     2    22    23   ar
     3    23    24   ar
     4    24    15    1
     5    15    16   ar
     6    16    17   ar
     7    17    18   ar
     8     1    18    1
     9     1     2    1
    10     2     3    1
    11     3     4    2
    12     4     5    1
    13     5     6    2
    14     6     7    1
    15     7     8    1
    16     8     9    2
    17     9    10    1
    18    10    11    2
    19     4    12    1
    20    12    27    1
    21    27    28    1
    22    28    29    1
    23    29    30    1
    24    30    31    1
    25    12    13    1
    26    18    19   ar
    27    24    25   ar
    28    25    26   ar
    29    26    21   ar
    30    19    15   ar
    31    13     1    1
    32    11     3    1
    33    31    27    1
    34    11     6    1
    35    13    14    1
    36    19    20    1
@<TRIPOS>MOLECULE
*****
 31 36 0 0 0
SMALL
GASTEIGER

@<TRIPOS>ATOM
      1 C         140.2147  143.7822  159.2745 C.3     1  UNL1        0.1161
      2 C         141.1767  142.6315  159.2959 C.3     1  UNL1        0.0510
      3 C         141.4629  141.9170  160.5834 C.2     1  UNL1       -0.0044
      4 C         140.7870  142.3532  161.8494 C.2     1  UNL1        0.0690
      5 N         141.2635  141.4639  162.9594 N.2     1  UNL1       -0.2526
      6 C         142.2338  140.4780  162.3793 C.2     1  UNL1        0.0627
      7 C         143.0211  139.3614  162.9985 C.3     1  UNL1        0.0717
      8 C         143.9316  138.5249  162.1493 C.2     1  UNL1       -0.0198
      9 C         144.0548  138.8050  160.6808 C.2     1  UNL1       -0.0042
     10 C         143.2675  139.9215  160.0616 C.2     1  UNL1        0.0006
     11 C         142.3570  140.7580  160.9108 C.2     1  UNL1        0.0111
     12 C         139.8250  143.5040  161.8280 C.3     1  UNL1        0.0972
     13 N         139.5389  144.2184  160.5405 N.3     1  UNL1       -0.2887
     14 H         139.7879  145.1970  160.6852 H       1  UNL1        0.1239
     15 C         139.5852  146.2554  156.3500 C.ar    1  UNL1        0.0769
     16 C         139.3914  144.9370  155.6614 C.ar    1  UNL1        0.1171
     17 N         139.6036  143.8500  156.6731 N.ar    1  UNL1       -0.2282
     18 C         139.9286  144.4967  157.9869 C.ar    1  UNL1        0.1318
     19 N         139.9173  145.9833  157.7873 N.ar    1  UNL1       -0.3397
     20 H         140.0963  146.6613  158.4783 H       1  UNL1        0.1671
     21 C         139.2326  150.3144  154.4396 C.ar    1  UNL1        0.0000
     22 C         138.5662  150.0447  155.7560 C.ar    1  UNL1        0.0000
     23 C         138.6838  148.6917  156.3928 C.ar    1  UNL1        0.0015
     24 C         139.4677  147.6084  155.7132 C.ar    1  UNL1        0.0172
     25 C         140.1341  147.8782  154.3967 C.ar    1  UNL1        0.0015
     26 C         140.0166  149.2312  153.7599 C.ar    1  UNL1        0.0000
     27 C         139.1492  143.9402  163.0941 C.3     1  UNL1        0.0523
     28 C         139.7994  144.6619  164.2370 C.3     1  UNL1        0.0363
     29 C         138.7565  144.8991  165.2889 C.3     1  UNL1        0.1423
     30 O         137.4619  144.3240  164.7959 O.3     1  UNL1       -0.3537
     31 C         137.7045  143.7313  163.4395 C.3     1  UNL1        0.1439
@<TRIPOS>BOND
     1    21    22   ar
     2    22    23   ar
     3    23    24   ar
     4    24    15    1
     5    15    16   ar
     6    16    17   ar
     7    17    18   ar
     8     1    18    1
     9     1     2    1
    10     2     3    1
    11     3     4    2
    12     4     5    1
    13     5     6    2
    14     6     7    1
    15     7     8    1
    16     8     9    2
    17     9    10    1
    18    10    11    2
    19     4    12    1
    20    12    27    1
    21    27    28    1
    22    28    29    1
    23    29    30    1
    24    30    31    1
    25    12    13    1
    26    18    19   ar
    27    24    25   ar
    28    25    26   ar
    29    26    21   ar
    30    19    15   ar
    31    13     1    1
    32    11     3    1
    33    31    27    1
    34    11     6    1
    35    13    14    1
    36    19    20    1
@<TRIPOS>MOLECULE
*****
 31 36 0 0 0
SMALL
GASTEIGER

@<TRIPOS>ATOM
      1 C         140.7317  139.8195  160.8266 C.3     1  UNL1        0.1161
      2 C         139.9818  139.2747  162.0059 C.3     1  UNL1        0.0510
      3 C         140.1350  139.9157  163.3534 C.2     1  UNL1       -0.0044
      4 C         141.0381  141.1015  163.5214 C.2     1  UNL1        0.0690
      5 N         140.9896  141.5208  164.9608 N.2     1  UNL1       -0.2526
      6 C         140.0565  140.5941  165.6824 C.2     1  UNL1        0.0627
      7 C         139.6195  140.5254  167.1156 C.3     1  UNL1        0.0717
      8 C         138.6544  139.4647  167.5554 C.2     1  UNL1       -0.0198
      9 C         138.1262  138.4727  166.5619 C.2     1  UNL1       -0.0042
     10 C         138.5632  138.5414  165.1287 C.2     1  UNL1        0.0006
     11 C         139.5283  139.6021  164.6889 C.2     1  UNL1        0.0111
     12 C         141.7880  141.6463  162.3421 C.3     1  UNL1        0.0972
     13 N         141.6348  141.0053  160.9946 N.3     1  UNL1       -0.2887
     14 H         142.5661  140.7101  160.7014 H       1  UNL1        0.1239
     15 C         141.0045  137.8502  157.4930 C.ar    1  UNL1        0.0769
     16 C         139.6808  138.5337  157.3183 C.ar    1  UNL1        0.1171
     17 N         139.4174  139.3546  158.5458 N.ar    1  UNL1       -0.2282
     18 C         140.5784  139.1784  159.4791 C.ar    1  UNL1        0.1318
     19 N         141.5593  138.2487  158.8284 N.ar    1  UNL1       -0.3397
     20 H         142.4167  137.9521  159.2107 H       1  UNL1        0.1671
     21 C         142.9669  135.0891  154.5306 C.ar    1  UNL1        0.0000
     22 C         141.4991  135.3798  154.4266 C.ar    1  UNL1        0.0000
     23 C         140.8450  136.3001  155.4140 C.ar    1  UNL1        0.0015
     24 C         141.6587  136.9298  156.5055 C.ar    1  UNL1        0.0172
     25 C         143.1266  136.6392  156.6095 C.ar    1  UNL1        0.0015
     26 C         143.7807  135.7188  155.6221 C.ar    1  UNL1        0.0000
     27 C         142.6911  142.8321  162.5101 C.3     1  UNL1        0.0523
     28 C         142.4159  144.0363  163.3611 C.3     1  UNL1        0.0363
     29 C         143.5827  144.9704  163.2337 C.3     1  UNL1        0.1423
     30 O         144.5789  144.3435  162.3039 O.3     1  UNL1       -0.3537
     31 C         144.0279  143.0219  161.8567 C.3     1  UNL1        0.1439
@<TRIPOS>BOND
     1    21    22   ar
     2    22    23   ar
     3    23    24   ar
     4    24    15    1
     5    15    16   ar
     6    16    17   ar
     7    17    18   ar
     8     1    18    1
     9     1     2    1
    10     2     3    1
    11     3     4    2
    12     4     5    1
    13     5     6    2
    14     6     7    1
    15     7     8    1
    16     8     9    2
    17     9    10    1
    18    10    11    2
    19     4    12    1
    20    12    27    1
    21    27    28    1
    22    28    29    1
    23    29    30    1
    24    30    31    1
    25    12    13    1
    26    18    19   ar
    27    24    25   ar
    28    25    26   ar
    29    26    21   ar
    30    19    15   ar
    31    13     1    1
    32    11     3    1
    33    31    27    1
    34    11     6    1
    35    13    14    1
    36    19    20    1
@<TRIPOS>MOLECULE
*****
 31 36 0 0 0
SMALL
GASTEIGER

@<TRIPOS>ATOM
      1 C         142.0490  140.1609  160.6165 C.3     1  UNL1        0.1161
      2 C         142.4614  139.5095  161.9032 C.3     1  UNL1        0.0510
      3 C         142.1994  140.1977  163.2100 C.2     1  UNL1       -0.0044
      4 C         141.5249  141.5373  163.2301 C.2     1  UNL1        0.0690
      5 N         141.3991  141.9714  164.6603 N.2     1  UNL1       -0.2526
      6 C         141.9958  140.9001  165.5242 C.2     1  UNL1        0.0627
      7 C         142.1527  140.7812  167.0112 C.3     1  UNL1        0.0717
      8 C         142.8042  139.5660  167.6018 C.2     1  UNL1       -0.0198
      9 C         143.2988  138.4698  166.7054 C.2     1  UNL1       -0.0042
     10 C         143.1420  138.5887  165.2184 C.2     1  UNL1        0.0006
     11 C         142.4905  139.8038  164.6278 C.2     1  UNL1        0.0111
     12 C         141.1124  142.1887  161.9434 C.3     1  UNL1        0.0972
     13 N         141.3745  141.5006  160.6366 N.3     1  UNL1       -0.2887
     14 H         141.9548  142.1308  160.0831 H       1  UNL1        0.1239
     15 C         142.4137  137.7826  157.5708 C.ar    1  UNL1        0.0769
     16 C         143.0148  139.0446  157.0267 C.ar    1  UNL1        0.1171
     17 N         142.9514  140.0891  158.1014 N.ar    1  UNL1       -0.2282
     18 C         142.3110  139.4727  159.3096 C.ar    1  UNL1        0.1318
     19 N         141.9787  138.0472  158.9818 N.ar    1  UNL1       -0.3397
     20 H         141.5504  137.3991  159.5865 H       1  UNL1        0.1671
     21 C         141.9897  133.8868  155.3589 C.ar    1  UNL1        0.0000
     22 C         143.0148  134.0247  156.4452 C.ar    1  UNL1        0.0000
     23 C         143.1561  135.3233  157.1825 C.ar    1  UNL1        0.0015
     24 C         142.2723  136.4840  156.8335 C.ar    1  UNL1        0.0172
     25 C         141.2473  136.3460  155.7471 C.ar    1  UNL1        0.0015
     26 C         141.1060  135.0475  155.0098 C.ar    1  UNL1        0.0000
     27 C         140.4379  143.5284  161.9635 C.3     1  UNL1        0.0523
     28 C         141.1091  144.8563  161.7735 C.3     1  UNL1        0.0363
     29 C         140.0598  145.9240  161.8697 C.3     1  UNL1        0.1423
     30 O         138.7402  145.2558  162.1192 O.3     1  UNL1       -0.3537
     31 C         138.9739  143.7753  162.1771 C.3     1  UNL1        0.1439
@<TRIPOS>BOND
     1    21    22   ar
     2    22    23   ar
     3    23    24   ar
     4    24    15    1
     5    15    16   ar
     6    16    17   ar
     7    17    18   ar
     8     1    18    1
     9     1     2    1
    10     2     3    1
    11     3     4    2
    12     4     5    1
    13     5     6    2
    14     6     7    1
    15     7     8    1
    16     8     9    2
    17     9    10    1
    18    10    11    2
    19     4    12    1
    20    12    27    1
    21    27    28    1
    22    28    29    1
    23    29    30    1
    24    30    31    1
    25    12    13    1
    26    18    19   ar
    27    24    25   ar
    28    25    26   ar
    29    26    21   ar
    30    19    15   ar
    31    13     1    1
    32    11     3    1
    33    31    27    1
    34    11     6    1
    35    13    14    1
    36    19    20    1
@<TRIPOS>MOLECULE
*****
 31 36 0 0 0
SMALL
GASTEIGER

@<TRIPOS>ATOM
      1 C         139.4964  139.7234  159.9484 C.3     1  UNL1        0.1161
      2 C         139.2528  138.8918  161.1728 C.3     1  UNL1        0.0510
      3 C         139.0597  139.5556  162.5040 C.2     1  UNL1       -0.0044
      4 C         139.1102  141.0509  162.6108 C.2     1  UNL1        0.0690
      5 N         138.8861  141.4208  164.0471 N.2     1  UNL1       -0.2526
      6 C         138.6970  140.1541  164.8279 C.2     1  UNL1        0.0627
      7 C         138.4410  139.9014  166.2841 C.3     1  UNL1        0.0717
      8 C         138.2923  138.4960  166.7866 C.2     1  UNL1       -0.0198
      9 C         138.3996  137.3432  165.8329 C.2     1  UNL1       -0.0042
     10 C         138.6556  137.5958  164.3767 C.2     1  UNL1        0.0006
     11 C         138.8043  139.0013  163.8742 C.2     1  UNL1        0.0111
     12 C         139.3538  141.8825  161.3864 C.3     1  UNL1        0.0972
     13 N         139.5469  141.2188  160.0552 N.3     1  UNL1       -0.2887
     14 H         140.4630  141.5077  159.7122 H       1  UNL1        0.1239
     15 C         140.5537  137.6367  156.8511 C.ar    1  UNL1        0.0769
     16 C         139.4196  138.4396  156.2862 C.ar    1  UNL1        0.1171
     17 N         138.8854  139.3190  157.3777 N.ar    1  UNL1       -0.2282
     18 C         139.6895  139.0596  158.6171 C.ar    1  UNL1        0.1318
     19 N         140.7205  138.0199  158.2917 N.ar    1  UNL1       -0.3397
     20 H         141.3893  137.6534  158.9143 H       1  UNL1        0.1671
     21 C         143.0223  134.6099  154.6164 C.ar    1  UNL1        0.0000
     22 C         143.5062  135.1501  155.9294 C.ar    1  UNL1        0.0000
     23 C         142.6833  136.1590  156.6743 C.ar    1  UNL1        0.0015
     24 C         141.3766  136.6277  156.1061 C.ar    1  UNL1        0.0172
     25 C         140.8927  136.0875  154.7931 C.ar    1  UNL1        0.0015
     26 C         141.7156  135.0786  154.0483 C.ar    1  UNL1        0.0000
     27 C         139.4044  143.3778  161.4932 C.3     1  UNL1        0.0523
     28 C         140.4431  144.2708  160.8818 C.3     1  UNL1        0.0363
     29 C         140.1057  145.6876  161.2409 C.3     1  UNL1        0.1423
     30 O         138.8586  145.6702  162.0742 O.3     1  UNL1       -0.3537
     31 C         138.4251  144.2427  162.2301 C.3     1  UNL1        0.1439
@<TRIPOS>BOND
     1    21    22   ar
     2    22    23   ar
     3    23    24   ar
     4    24    15    1
     5    15    16   ar
     6    16    17   ar
     7    17    18   ar
     8     1    18    1
     9     1     2    1
    10     2     3    1
    11     3     4    2
    12     4     5    1
    13     5     6    2
    14     6     7    1
    15     7     8    1
    16     8     9    2
    17     9    10    1
    18    10    11    2
    19     4    12    1
    20    12    27    1
    21    27    28    1
    22    28    29    1
    23    29    30    1
    24    30    31    1
    25    12    13    1
    26    18    19   ar
    27    24    25   ar
    28    25    26   ar
    29    26    21   ar
    30    19    15   ar
    31    13     1    1
    32    11     3    1
    33    31    27    1
    34    11     6    1
    35    13    14    1
    36    19    20    1
@<TRIPOS>MOLECULE
*****
 31 36 0 0 0
SMALL
GASTEIGER

@<TRIPOS>ATOM
      1 C         143.3425  141.4706  160.1117 C.3     1  UNL1        0.1161
      2 C         143.6616  140.6055  161.2948 C.3     1  UNL1        0.0510
      3 C         142.9858  140.8551  162.6105 C.2     1  UNL1       -0.0044
      4 C         141.9910  141.9699  162.7430 C.2     1  UNL1        0.0690
      5 N         141.4878  141.9764  164.1560 N.2     1  UNL1       -0.2526
      6 C         142.1715  140.8656  164.8968 C.2     1  UNL1        0.0627
      7 C         142.0707  140.3957  166.3177 C.3     1  UNL1        0.0717
      8 C         142.8957  139.2328  166.7833 C.2     1  UNL1       -0.0198
      9 C         143.8216  138.5398  165.8281 C.2     1  UNL1       -0.0042
     10 C         143.9224  139.0097  164.4072 C.2     1  UNL1        0.0006
     11 C         143.0974  140.1726  163.9415 C.2     1  UNL1        0.0111
     12 C         141.6720  142.8351  161.5599 C.3     1  UNL1        0.0972
     13 N         142.3477  142.5854  160.2442 N.3     1  UNL1       -0.2887
     14 H         142.8352  143.4462  159.9956 H       1  UNL1        0.1239
     15 C         145.3393  141.5321  156.7838 C.ar    1  UNL1        0.0769
     16 C         144.7772  140.1416  156.7589 C.ar    1  UNL1        0.1171
     17 N         143.9608  139.9493  158.0025 N.ar    1  UNL1       -0.2282
     18 C         144.0184  141.2210  158.7959 C.ar    1  UNL1        0.1318
     19 N         144.8703  142.1992  158.0428 N.ar    1  UNL1       -0.3397
     20 H         145.0841  143.1177  158.3252 H       1  UNL1        0.1671
     21 C         147.9708  143.3781  153.6347 C.ar    1  UNL1        0.0000
     22 C         148.5551  142.4282  154.6378 C.ar    1  UNL1        0.0000
     23 C         147.6780  141.8129  155.6875 C.ar    1  UNL1        0.0015
     24 C         146.2165  142.1475  155.7341 C.ar    1  UNL1        0.0172
     25 C         145.6322  143.0973  154.7310 C.ar    1  UNL1        0.0015
     26 C         146.5094  143.7127  153.6813 C.ar    1  UNL1        0.0000
     27 C         140.6771  143.9498  161.6924 C.3     1  UNL1        0.0523
     28 C         140.9557  145.4093  161.4860 C.3     1  UNL1        0.0363
     29 C         139.6798  146.1624  161.7207 C.3     1  UNL1        0.1423
     30 O         138.6128  145.1684  162.0721 O.3     1  UNL1       -0.3537
     31 C         139.2292  143.8010  162.0547 C.3     1  UNL1        0.1439
@<TRIPOS>BOND
     1    21    22   ar
     2    22    23   ar
     3    23    24   ar
     4    24    15    1
     5    15    16   ar
     6    16    17   ar
     7    17    18   ar
     8     1    18    1
     9     1     2    1
    10     2     3    1
    11     3     4    2
    12     4     5    1
    13     5     6    2
    14     6     7    1
    15     7     8    1
    16     8     9    2
    17     9    10    1
    18    10    11    2
    19     4    12    1
    20    12    27    1
    21    27    28    1
    22    28    29    1
    23    29    30    1
    24    30    31    1
    25    12    13    1
    26    18    19   ar
    27    24    25   ar
    28    25    26   ar
    29    26    21   ar
    30    19    15   ar
    31    13     1    1
    32    11     3    1
    33    31    27    1
    34    11     6    1
    35    13    14    1
    36    19    20    1
@<TRIPOS>MOLECULE
*****
 31 36 0 0 0
SMALL
GASTEIGER

@<TRIPOS>ATOM
      1 C         141.5500  139.0652  160.3918 C.3     1  UNL1        0.1161
      2 C         140.7070  138.4838  161.4879 C.3     1  UNL1        0.0510
      3 C         140.5566  139.2171  162.7877 C.2     1  UNL1       -0.0044
      4 C         141.2493  140.5319  162.9915 C.2     1  UNL1        0.0690
      5 N         140.9179  141.0216  164.3700 N.2     1  UNL1       -0.2526
      6 C         140.0204  140.0095  165.0182 C.2     1  UNL1        0.0627
      7 C         139.3777  139.9593  166.3725 C.3     1  UNL1        0.0717
      8 C         138.5117  138.7938  166.7490 C.2     1  UNL1       -0.0198
      9 C         138.2884  137.6786  165.7710 C.2     1  UNL1       -0.0042
     10 C         138.9311  137.7288  164.4167 C.2     1  UNL1        0.0006
     11 C         139.7971  138.8942  164.0403 C.2     1  UNL1        0.0111
     12 C         142.0923  141.1133  161.8954 C.3     1  UNL1        0.0972
     13 N         142.2427  140.3800  160.5956 N.3     1  UNL1       -0.2887
     14 H         143.2402  140.2103  160.4669 H       1  UNL1        0.1239
     15 C         141.2497  137.4349  156.8822 C.ar    1  UNL1        0.0769
     16 C         142.6134  136.9716  157.3013 C.ar    1  UNL1        0.1171
     17 N         142.8919  137.5259  158.6670 N.ar    1  UNL1       -0.2282
     18 C         141.7003  138.3318  159.0919 C.ar    1  UNL1        0.1318
     19 N         140.6854  138.2756  157.9889 N.ar    1  UNL1       -0.3397
     20 H         139.8037  138.7135  157.9910 H       1  UNL1        0.1671
     21 C         139.2097  136.4720  152.9884 C.ar    1  UNL1        0.0000
     22 C         140.6239  136.0306  153.2234 C.ar    1  UNL1        0.0000
     23 C         141.3039  136.3516  154.5213 C.ar    1  UNL1        0.0015
     24 C         140.5697  137.1140  155.5842 C.ar    1  UNL1        0.0172
     25 C         139.1555  137.5553  155.3492 C.ar    1  UNL1        0.0015
     26 C         138.4755  137.2343  154.0513 C.ar    1  UNL1        0.0000
     27 C         142.7850  142.4281  162.0992 C.3     1  UNL1        0.0523
     28 C         144.0748  142.6403  162.8350 C.3     1  UNL1        0.0363
     29 C         144.3965  144.1049  162.7935 C.3     1  UNL1        0.1423
     30 O         143.3055  144.7977  162.0321 O.3     1  UNL1       -0.3537
     31 C         142.3096  143.7614  161.6030 C.3     1  UNL1        0.1439
@<TRIPOS>BOND
     1    21    22   ar
     2    22    23   ar
     3    23    24   ar
     4    24    15    1
     5    15    16   ar
     6    16    17   ar
     7    17    18   ar
     8     1    18    1
     9     1     2    1
    10     2     3    1
    11     3     4    2
    12     4     5    1
    13     5     6    2
    14     6     7    1
    15     7     8    1
    16     8     9    2
    17     9    10    1
    18    10    11    2
    19     4    12    1
    20    12    27    1
    21    27    28    1
    22    28    29    1
    23    29    30    1
    24    30    31    1
    25    12    13    1
    26    18    19   ar
    27    24    25   ar
    28    25    26   ar
    29    26    21   ar
    30    19    15   ar
    31    13     1    1
    32    11     3    1
    33    31    27    1
    34    11     6    1
    35    13    14    1
    36    19    20    1
@<TRIPOS>MOLECULE
*****
 31 36 0 0 0
SMALL
GASTEIGER

@<TRIPOS>ATOM
      1 C         141.8476  140.3201  162.3534 C.3     1  UNL1        0.1161
      2 C         142.1078  140.0236  163.8006 C.3     1  UNL1        0.0510
      3 C         141.7177  141.0197  164.8521 C.2     1  UNL1       -0.0044
      4 C         141.0676  142.3123  164.4564 C.2     1  UNL1        0.0690
      5 N         140.7954  143.0958  165.7062 N.2     1  UNL1       -0.2526
      6 C         141.2773  142.2875  166.8743 C.2     1  UNL1        0.0627
      7 C         141.2706  142.5541  168.3504 C.3     1  UNL1        0.0717
      8 C         141.8341  141.5375  169.2986 C.2     1  UNL1       -0.0198
      9 C         142.4041  140.2544  168.7707 C.2     1  UNL1       -0.0042
     10 C         142.4107  139.9878  167.2947 C.2     1  UNL1        0.0006
     11 C         141.8473  141.0044  166.3465 C.2     1  UNL1        0.0111
     12 C         140.8075  142.6088  163.0092 C.3     1  UNL1        0.0972
     13 N         141.1975  141.6127  161.9577 N.3     1  UNL1       -0.2887
     14 H         141.8448  142.0873  161.3282 H       1  UNL1        0.1239
     15 C         142.5491  138.2371  159.1543 C.ar    1  UNL1        0.0769
     16 C         143.1266  137.3454  160.2131 C.ar    1  UNL1        0.1171
     17 N         142.9342  138.0171  161.5404 N.ar    1  UNL1       -0.2282
     18 C         142.2377  139.3240  161.3018 C.ar    1  UNL1        0.1318
     19 N         141.9997  139.4600  159.8271 N.ar    1  UNL1       -0.3397
     20 H         141.5600  140.2186  159.3794 H       1  UNL1        0.1671
     21 C         142.4772  137.3920  154.7349 C.ar    1  UNL1        0.0000
     22 C         142.8246  136.2992  155.7019 C.ar    1  UNL1        0.0000
     23 C         142.8485  136.5809  157.1750 C.ar    1  UNL1        0.0015
     24 C         142.5251  137.9554  157.6811 C.ar    1  UNL1        0.0172
     25 C         142.1778  139.0482  156.7141 C.ar    1  UNL1        0.0015
     26 C         142.1538  138.7665  155.2410 C.ar    1  UNL1        0.0000
     27 C         140.1574  143.9013  162.6135 C.3     1  UNL1        0.0523
     28 C         140.8670  145.1423  162.1591 C.3     1  UNL1        0.0363
     29 C         139.8317  146.1878  161.8675 C.3     1  UNL1        0.1423
     30 O         138.4822  145.5930  162.1416 O.3     1  UNL1       -0.3537
     31 C         138.6835  144.1799  162.6026 C.3     1  UNL1        0.1439
@<TRIPOS>BOND
     1    21    22   ar
     2    22    23   ar
     3    23    24   ar
     4    24    15    1
     5    15    16   ar
     6    16    17   ar
     7    17    18   ar
     8     1    18    1
     9     1     2    1
    10     2     3    1
    11     3     4    2
    12     4     5    1
    13     5     6    2
    14     6     7    1
    15     7     8    1
    16     8     9    2
    17     9    10    1
    18    10    11    2
    19     4    12    1
    20    12    27    1
    21    27    28    1
    22    28    29    1
    23    29    30    1
    24    30    31    1
    25    12    13    1
    26    18    19   ar
    27    24    25   ar
    28    25    26   ar
    29    26    21   ar
    30    19    15   ar
    31    13     1    1
    32    11     3    1
    33    31    27    1
    34    11     6    1
    35    13    14    1
    36    19    20    1
@<TRIPOS>MOLECULE
*****
 31 36 0 0 0
SMALL
GASTEIGER

@<TRIPOS>ATOM
      1 C         142.4300  139.7568  159.6603 C.3     1  UNL1        0.1161
      2 C         143.4895  140.6530  159.0907 C.3     1  UNL1        0.0510
      3 C         144.1045  140.3356  157.7600 C.2     1  UNL1       -0.0044
      4 C         143.6600  139.1219  156.9987 C.2     1  UNL1        0.0690
      5 N         144.4421  139.0647  155.7201 N.2     1  UNL1       -0.2526
      6 C         145.3700  140.2430  155.6910 C.2     1  UNL1        0.0627
      7 C         146.3779  140.7021  154.6795 C.3     1  UNL1        0.0717
      8 C         147.1771  141.9467  154.9287 C.2     1  UNL1       -0.0198
      9 C         146.9684  142.7322  156.1895 C.2     1  UNL1       -0.0042
     10 C         145.9605  142.2730  157.2010 C.2     1  UNL1        0.0006
     11 C         145.1613  141.0284  156.9518 C.2     1  UNL1        0.0111
     12 C         142.6005  138.2257  157.5683 C.3     1  UNL1        0.0972
     13 N         141.9856  138.5432  158.8990 N.3     1  UNL1       -0.2887
     14 H         142.1566  137.7384  159.5020 H       1  UNL1        0.1239
     15 C         140.5641  139.8778  163.0616 C.ar    1  UNL1        0.0769
     16 C         141.1732  141.2477  163.0163 C.ar    1  UNL1        0.1171
     17 N         141.9464  141.3692  161.7367 N.ar    1  UNL1       -0.2282
     18 C         141.8150  140.0743  160.9911 C.ar    1  UNL1        0.1318
     19 N         140.9608  139.1525  161.8099 N.ar    1  UNL1       -0.3397
     20 H         140.7053  138.2330  161.5683 H       1  UNL1        0.1671
     21 C         137.9973  138.2322  166.3713 C.ar    1  UNL1        0.0000
     22 C         138.7050  137.2975  165.4357 C.ar    1  UNL1        0.0000
     23 C         139.5606  137.8460  164.3325 C.ar    1  UNL1        0.0015
     24 C         139.7085  139.3293  164.1649 C.ar    1  UNL1        0.0172
     25 C         139.0008  140.2640  165.1005 C.ar    1  UNL1        0.0015
     26 C         138.1452  139.7155  166.2037 C.ar    1  UNL1        0.0000
     27 C         142.1561  137.0121  156.8070 C.3     1  UNL1        0.0523
     28 C         142.8655  135.6912  156.7614 C.3     1  UNL1        0.0363
     29 C         142.0720  134.7690  155.8839 C.3     1  UNL1        0.1423
     30 O         140.8722  135.5199  155.3873 O.3     1  UNL1       -0.3537
     31 C         140.9242  136.9062  155.9578 C.3     1  UNL1        0.1439
@<TRIPOS>BOND
     1    21    22   ar
     2    22    23   ar
     3    23    24   ar
     4    24    15    1
     5    15    16   ar
     6    16    17   ar
     7    17    18   ar
     8     1    18    1
     9     1     2    1
    10     2     3    1
    11     3     4    2
    12     4     5    1
    13     5     6    2
    14     6     7    1
    15     7     8    1
    16     8     9    2
    17     9    10    1
    18    10    11    2
    19     4    12    1
    20    12    27    1
    21    27    28    1
    22    28    29    1
    23    29    30    1
    24    30    31    1
    25    12    13    1
    26    18    19   ar
    27    24    25   ar
    28    25    26   ar
    29    26    21   ar
    30    19    15   ar
    31    13     1    1
    32    11     3    1
    33    31    27    1
    34    11     6    1
    35    13    14    1
    36    19    20    1
