@<TRIPOS>MOLECULE
*****
 23 23 0 0 0
SMALL
GASTEIGER

@<TRIPOS>ATOM
      1 C         139.6563  139.2407  165.6540 C.ar    1  UNL1        0.2698
      2 C         138.8920  138.0512  165.1533 C.ar    1  UNL1        0.0787
      3 C         139.0518  137.6014  163.7313 C.ar    1  UNL1        0.0136
      4 C         139.9758  138.3412  162.8100 C.ar    1  UNL1        0.0787
      5 C         140.7401  139.5307  163.3107 C.ar    1  UNL1        0.2698
      6 N         140.5804  139.9805  164.7328 N.ar    1  UNL1       -0.1494
      7 C         141.3447  141.1701  165.2335 C.3     1  UNL1        0.4092
      8 C         139.3368  140.1403  168.4981 C.1     1  UNL1       -0.0807
      9 C         139.4965  139.6905  167.0761 C.1     1  UNL1        0.0039
     10 C         139.1770  140.5901  169.9201 C.3     1  UNL1        0.0766
     11 C         139.5941  141.9742  170.3203 C.3     1  UNL1        0.0140
     12 C         140.4588  142.7908  169.4062 C.3     1  UNL1        0.0010
     13 C         141.8788  143.0898  169.7858 C.3     1  UNL1        0.0000
     14 C         142.8287  140.9304  168.6974 C.3     1  UNL1        0.0000
     15 C         143.0043  142.3607  169.1136 C.3     1  UNL1        0.0000
     16 C         141.6643  140.2705  162.3894 C.1     1  UNL1        0.0039
     17 C         142.5884  141.0103  161.4682 C.1     1  UNL1       -0.0807
     18 C         143.5125  141.7501  160.5469 C.3     1  UNL1        0.0766
     19 C         144.7057  142.4706  161.1012 C.3     1  UNL1        0.0140
     20 C         144.5704  143.3000  162.3437 C.3     1  UNL1        0.0010
     21 C         144.8429  142.6893  163.6864 C.3     1  UNL1        0.0000
     22 C         145.7255  141.4814  163.7958 C.3     1  UNL1        0.0000
     23 C         145.1271  140.1407  164.1026 C.3     1  UNL1        0.0000
@<TRIPOS>UNITY_ATOM_ATTR
6 1
charge 1
@<TRIPOS>BOND
     1    14    15    1
     2    15    13    1
     3    13    12    1
     4    12    11    1
     5    11    10    1
     6    10     8    1
     7     8     9    3
     8     9     1    1
     9     1     2   ar
    10     2     3   ar
    11     3     4   ar
    12     4     5   ar
    13     5    16    1
    14    16    17    3
    15    17    18    1
    16    18    19    1
    17    19    20    1
    18    20    21    1
    19    21    22    1
    20    22    23    1
    21     5     6   ar
    22     6     7    1
    23     6     1   ar
@<TRIPOS>MOLECULE
*****
 23 23 0 0 0
SMALL
GASTEIGER

@<TRIPOS>ATOM
      1 C         139.4646  139.6418  165.5025 C.ar    1  UNL1        0.2698
      2 C         138.9025  138.3279  165.0469 C.ar    1  UNL1        0.0787
      3 C         138.8525  138.0003  163.5840 C.ar    1  UNL1        0.0136
      4 C         139.3646  138.9867  162.5766 C.ar    1  UNL1        0.0787
      5 C         139.9266  140.3006  163.0322 C.ar    1  UNL1        0.2698
      6 N         139.9766  140.6282  164.4952 N.ar    1  UNL1       -0.1494
      7 C         140.5387  141.9422  164.9508 C.3     1  UNL1        0.4092
      8 C         139.5645  140.2969  168.4284 C.1     1  UNL1       -0.0807
      9 C         139.5145  139.9693  166.9655 C.1     1  UNL1        0.0039
     10 C         139.6145  140.6244  169.8913 C.3     1  UNL1        0.0766
     11 C         139.6237  142.0559  170.3395 C.3     1  UNL1        0.0140
     12 C         140.4699  143.0623  169.6178 C.3     1  UNL1        0.0010
     13 C         141.9041  143.2569  170.0119 C.3     1  UNL1        0.0000
     14 C         142.8454  142.1303  167.8683 C.3     1  UNL1        0.0000
     15 C         142.9841  142.4784  169.3208 C.3     1  UNL1        0.0000
     16 C         140.4387  141.2871  162.0249 C.1     1  UNL1        0.0039
     17 C         140.9508  142.2736  161.0176 C.1     1  UNL1       -0.0807
     18 C         141.4629  143.2600  160.0102 C.3     1  UNL1        0.0766
     19 C         141.1840  144.7235  160.1847 C.3     1  UNL1        0.0140
     20 C         140.0263  145.1711  161.0270 C.3     1  UNL1        0.0010
     21 C         140.2344  145.4943  162.4769 C.3     1  UNL1        0.0000
     22 C         139.2088  145.0837  163.4915 C.3     1  UNL1        0.0000
     23 C         138.1029  144.1476  163.1035 C.3     1  UNL1        0.0000
@<TRIPOS>UNITY_ATOM_ATTR
6 1
charge 1
@<TRIPOS>BOND
     1    14    15    1
     2    15    13    1
     3    13    12    1
     4    12    11    1
     5    11    10    1
     6    10     8    1
     7     8     9    3
     8     9     1    1
     9     1     2   ar
    10     2     3   ar
    11     3     4   ar
    12     4     5   ar
    13     5    16    1
    14    16    17    3
    15    17    18    1
    16    18    19    1
    17    19    20    1
    18    20    21    1
    19    21    22    1
    20    22    23    1
    21     5     6   ar
    22     6     7    1
    23     6     1   ar
@<TRIPOS>MOLECULE
*****
 23 23 0 0 0
SMALL
GASTEIGER

@<TRIPOS>ATOM
      1 C         139.6608  140.0372  163.1199 C.ar    1  UNL1        0.2698
      2 C         139.3071  138.6348  162.7223 C.ar    1  UNL1        0.0787
      3 C         138.9863  137.6152  163.7747 C.ar    1  UNL1        0.0136
      4 C         139.0192  137.9979  165.2246 C.ar    1  UNL1        0.0787
      5 C         139.3729  139.4003  165.6222 C.ar    1  UNL1        0.2698
      6 N         139.6938  140.4199  164.5699 N.ar    1  UNL1       -0.1494
      7 C         140.0475  141.8224  164.9675 C.3     1  UNL1        0.4092
      8 C         140.3025  142.0765  161.0153 C.1     1  UNL1       -0.0807
      9 C         139.9816  141.0568  162.0676 C.1     1  UNL1        0.0039
     10 C         140.6233  143.0961  159.9629 C.3     1  UNL1        0.0766
     11 C         141.1453  144.4451  160.3600 C.3     1  UNL1        0.0140
     12 C         140.1886  145.5586  160.6679 C.3     1  UNL1        0.0010
     13 C         140.0192  146.0327  162.0810 C.3     1  UNL1        0.0000
     14 C         138.1329  144.4663  162.9402 C.3     1  UNL1        0.0000
     15 C         139.4795  145.1007  163.1251 C.3     1  UNL1        0.0000
     16 C         139.4059  139.7831  167.0722 C.1     1  UNL1        0.0039
     17 C         139.4389  140.1659  168.5222 C.1     1  UNL1       -0.0807
     18 C         139.4718  140.5487  169.9722 C.3     1  UNL1        0.0766
     19 C         140.1234  141.8320  170.3944 C.3     1  UNL1        0.0140
     20 C         141.5021  141.8142  170.9852 C.3     1  UNL1        0.0010
     21 C         142.6584  141.3062  170.1758 C.3     1  UNL1        0.0000
     22 C         143.2861  142.1824  169.1327 C.3     1  UNL1        0.0000
     23 C         142.7909  142.1365  167.7176 C.3     1  UNL1        0.0000
@<TRIPOS>UNITY_ATOM_ATTR
6 1
charge 1
@<TRIPOS>BOND
     1    14    15    1
     2    15    13    1
     3    13    12    1
     4    12    11    1
     5    11    10    1
     6    10     8    1
     7     8     9    3
     8     9     1    1
     9     1     2   ar
    10     2     3   ar
    11     3     4   ar
    12     4     5   ar
    13     5    16    1
    14    16    17    3
    15    17    18    1
    16    18    19    1
    17    19    20    1
    18    20    21    1
    19    21    22    1
    20    22    23    1
    21     5     6   ar
    22     6     7    1
    23     6     1   ar
@<TRIPOS>MOLECULE
*****
 23 23 0 0 0
SMALL
GASTEIGER

@<TRIPOS>ATOM
      1 C         143.1935  140.0617  165.5232 C.ar    1  UNL1        0.2698
      2 C         144.1322  139.1846  164.7490 C.ar    1  UNL1        0.0787
      3 C         144.4201  139.4825  163.3074 C.ar    1  UNL1        0.0136
      4 C         143.7693  140.6576  162.6399 C.ar    1  UNL1        0.0787
      5 C         142.8306  141.5347  163.4140 C.ar    1  UNL1        0.2698
      6 N         142.5427  141.2368  164.8557 N.ar    1  UNL1       -0.1494
      7 C         141.6039  142.1141  165.6298 C.3     1  UNL1        0.4092
      8 C         142.6177  139.4659  168.4065 C.1     1  UNL1       -0.0807
      9 C         142.9056  139.7638  166.9648 C.1     1  UNL1        0.0039
     10 C         142.3298  139.1680  169.8481 C.3     1  UNL1        0.0766
     11 C         141.3225  139.9892  170.5970 C.3     1  UNL1        0.0140
     12 C         139.9177  140.1041  170.0838 C.3     1  UNL1        0.0010
     13 C         139.2579  141.4486  169.9989 C.3     1  UNL1        0.0000
     14 C         140.5823  143.6565  169.6512 C.3     1  UNL1        0.0000
     15 C         139.9413  142.6567  170.5675 C.3     1  UNL1        0.0000
     16 C         142.1798  142.7099  162.7465 C.1     1  UNL1        0.0039
     17 C         141.5289  143.8850  162.0791 C.1     1  UNL1       -0.0807
     18 C         140.8780  145.0602  161.4116 C.3     1  UNL1        0.0766
     19 C         139.7233  145.7531  162.0721 C.3     1  UNL1        0.0140
     20 C         139.0469  145.1233  163.2535 C.3     1  UNL1        0.0010
     21 C         137.7969  144.3168  163.0602 C.3     1  UNL1        0.0000
     22 C         137.8899  142.8687  162.6806 C.3     1  UNL1        0.0000
     23 C         138.1480  142.4824  161.2544 C.3     1  UNL1        0.0000
@<TRIPOS>UNITY_ATOM_ATTR
6 1
charge 1
@<TRIPOS>BOND
     1    14    15    1
     2    15    13    1
     3    13    12    1
     4    12    11    1
     5    11    10    1
     6    10     8    1
     7     8     9    3
     8     9     1    1
     9     1     2   ar
    10     2     3   ar
    11     3     4   ar
    12     4     5   ar
    13     5    16    1
    14    16    17    3
    15    17    18    1
    16    18    19    1
    17    19    20    1
    18    20    21    1
    19    21    22    1
    20    22    23    1
    21     5     6   ar
    22     6     7    1
    23     6     1   ar
@<TRIPOS>MOLECULE
*****
 23 23 0 0 0
SMALL
GASTEIGER

@<TRIPOS>ATOM
      1 C         140.4014  139.7567  163.1962 C.ar    1  UNL1        0.2698
      2 C         139.7528  138.4892  162.7241 C.ar    1  UNL1        0.0787
      3 C         138.9978  137.6274  163.6923 C.ar    1  UNL1        0.0136
      4 C         138.8913  138.0331  165.1324 C.ar    1  UNL1        0.0787
      5 C         139.5399  139.3006  165.6044 C.ar    1  UNL1        0.2698
      6 N         140.2949  140.1624  164.6363 N.ar    1  UNL1       -0.1494
      7 C         140.9434  141.4299  165.1084 C.3     1  UNL1        0.4092
      8 C         141.9114  141.4802  161.2599 C.1     1  UNL1       -0.0807
      9 C         141.1564  140.6185  162.2280 C.1     1  UNL1        0.0039
     10 C         142.6664  142.3420  160.2918 C.3     1  UNL1        0.0766
     11 C         144.0462  142.8215  160.6326 C.3     1  UNL1        0.0140
     12 C         144.9273  141.9983  161.5248 C.3     1  UNL1        0.0010
     13 C         145.1106  142.3858  162.9623 C.3     1  UNL1        0.0000
     14 C         145.0285  140.0410  164.0782 C.3     1  UNL1        0.0000
     15 C         145.6631  141.3933  163.9420 C.3     1  UNL1        0.0000
     16 C         139.4334  139.7063  167.0446 C.1     1  UNL1        0.0039
     17 C         139.3269  140.1121  168.4847 C.1     1  UNL1       -0.0807
     18 C         139.2205  140.5179  169.9249 C.3     1  UNL1        0.0766
     19 C         139.6037  141.9065  170.3432 C.3     1  UNL1        0.0140
     20 C         141.0161  142.2040  170.7510 C.3     1  UNL1        0.0010
     21 C         141.8890  143.0485  169.8706 C.3     1  UNL1        0.0000
     22 C         142.7924  142.3985  168.8650 C.3     1  UNL1        0.0000
     23 C         142.8718  140.9028  168.7844 C.3     1  UNL1        0.0000
@<TRIPOS>UNITY_ATOM_ATTR
6 1
charge 1
@<TRIPOS>BOND
     1    14    15    1
     2    15    13    1
     3    13    12    1
     4    12    11    1
     5    11    10    1
     6    10     8    1
     7     8     9    3
     8     9     1    1
     9     1     2   ar
    10     2     3   ar
    11     3     4   ar
    12     4     5   ar
    13     5    16    1
    14    16    17    3
    15    17    18    1
    16    18    19    1
    17    19    20    1
    18    20    21    1
    19    21    22    1
    20    22    23    1
    21     5     6   ar
    22     6     7    1
    23     6     1   ar
@<TRIPOS>MOLECULE
*****
 23 23 0 0 0
SMALL
GASTEIGER

@<TRIPOS>ATOM
      1 C         142.4760  141.6398  162.5828 C.ar    1  UNL1        0.2698
      2 C         143.8689  141.5973  162.0278 C.ar    1  UNL1        0.0787
      3 C         145.0469  141.7299  162.9469 C.ar    1  UNL1        0.0136
      4 C         144.8320  141.9050  164.4210 C.ar    1  UNL1        0.0787
      5 C         143.4392  141.9474  164.9761 C.ar    1  UNL1        0.2698
      6 N         142.2612  141.8148  164.0570 N.ar    1  UNL1       -0.1494
      7 C         140.8683  141.8573  164.6121 C.3     1  UNL1        0.4092
      8 C         140.1200  141.3746  160.7447 C.1     1  UNL1       -0.0807
      9 C         141.2980  141.5072  161.6637 C.1     1  UNL1        0.0039
     10 C         138.9420  141.2420  159.8256 C.3     1  UNL1        0.0766
     11 C         137.9614  140.1236  160.0197 C.3     1  UNL1        0.0140
     12 C         137.7177  139.5696  161.3922 C.3     1  UNL1        0.0010
     13 C         138.0769  138.1463  161.7011 C.3     1  UNL1        0.0000
     14 C         138.7739  138.7679  164.1255 C.3     1  UNL1        0.0000
     15 C         138.8105  137.8158  162.9670 C.3     1  UNL1        0.0000
     16 C         143.2243  142.1225  166.4503 C.1     1  UNL1        0.0039
     17 C         143.0094  142.2975  167.9244 C.1     1  UNL1       -0.0807
     18 C         142.7945  142.4725  169.3986 C.3     1  UNL1        0.0766
     19 C         141.6262  143.2706  169.8967 C.3     1  UNL1        0.0140
     20 C         140.2274  142.8076  169.6162 C.3     1  UNL1        0.0010
     21 C         139.7710  141.4633  170.1007 C.3     1  UNL1        0.0000
     22 C         139.9795  140.2478  169.2468 C.3     1  UNL1        0.0000
     23 C         139.6918  140.3063  167.7758 C.3     1  UNL1        0.0000
@<TRIPOS>UNITY_ATOM_ATTR
6 1
charge 1
@<TRIPOS>BOND
     1    14    15    1
     2    15    13    1
     3    13    12    1
     4    12    11    1
     5    11    10    1
     6    10     8    1
     7     8     9    3
     8     9     1    1
     9     1     2   ar
    10     2     3   ar
    11     3     4   ar
    12     4     5   ar
    13     5    16    1
    14    16    17    3
    15    17    18    1
    16    18    19    1
    17    19    20    1
    18    20    21    1
    19    21    22    1
    20    22    23    1
    21     5     6   ar
    22     6     7    1
    23     6     1   ar
@<TRIPOS>MOLECULE
*****
 23 23 0 0 0
SMALL
GASTEIGER

@<TRIPOS>ATOM
      1 C         139.4867  143.2602  165.3064 C.ar    1  UNL1        0.2698
      2 C         138.4110  144.1868  164.8225 C.ar    1  UNL1        0.0787
      3 C         137.9588  144.1296  163.3934 C.ar    1  UNL1        0.0136
      4 C         138.5823  143.1458  162.4483 C.ar    1  UNL1        0.0787
      5 C         139.6580  142.2193  162.9322 C.ar    1  UNL1        0.2698
      6 N         140.1103  142.2765  164.3613 N.ar    1  UNL1       -0.1494
      7 C         141.1861  141.3498  164.8451 C.3     1  UNL1        0.4092
      8 C         140.3912  143.3747  168.1645 C.1     1  UNL1       -0.0807
      9 C         139.9389  143.3175  166.7355 C.1     1  UNL1        0.0039
     10 C         140.8434  143.4319  169.5936 C.3     1  UNL1        0.0766
     11 C         142.2259  142.9809  169.9614 C.3     1  UNL1        0.0140
     12 C         143.0167  142.1338  169.0090 C.3     1  UNL1        0.0010
     13 C         142.9124  140.6386  169.0711 C.3     1  UNL1        0.0000
     14 C         143.0087  138.8427  167.1962 C.3     1  UNL1        0.0000
     15 C         142.2463  139.8864  167.9573 C.3     1  UNL1        0.0000
     16 C         140.2816  141.2354  161.9870 C.1     1  UNL1        0.0039
     17 C         140.9051  140.2517  161.0419 C.1     1  UNL1       -0.0807
     18 C         141.5287  139.2678  160.0967 C.3     1  UNL1        0.0766
     19 C         142.9663  139.4200  159.6964 C.3     1  UNL1        0.0140
     20 C         144.0537  139.1872  160.7030 C.3     1  UNL1        0.0010
     21 C         143.8326  138.2327  161.8388 C.3     1  UNL1        0.0000
     22 C         143.5928  138.7572  163.2235 C.3     1  UNL1        0.0000
     23 C         144.5986  139.6660  163.8657 C.3     1  UNL1        0.0000
@<TRIPOS>UNITY_ATOM_ATTR
6 1
charge 1
@<TRIPOS>BOND
     1    14    15    1
     2    15    13    1
     3    13    12    1
     4    12    11    1
     5    11    10    1
     6    10     8    1
     7     8     9    3
     8     9     1    1
     9     1     2   ar
    10     2     3   ar
    11     3     4   ar
    12     4     5   ar
    13     5    16    1
    14    16    17    3
    15    17    18    1
    16    18    19    1
    17    19    20    1
    18    20    21    1
    19    21    22    1
    20    22    23    1
    21     5     6   ar
    22     6     7    1
    23     6     1   ar
@<TRIPOS>MOLECULE
*****
 23 23 0 0 0
SMALL
GASTEIGER

@<TRIPOS>ATOM
      1 C         140.5088  139.5642  165.3280 C.ar    1  UNL1        0.2698
      2 C         139.5732  138.5724  165.9534 C.ar    1  UNL1        0.0787
      3 C         138.7705  137.6485  165.0862 C.ar    1  UNL1        0.0136
      4 C         138.9032  137.7164  163.5937 C.ar    1  UNL1        0.0787
      5 C         139.8388  138.7082  162.9683 C.ar    1  UNL1        0.2698
      6 N         140.6415  139.6321  163.8354 N.ar    1  UNL1       -0.1494
      7 C         141.5771  140.6239  163.2100 C.3     1  UNL1        0.4092
      8 C         142.1143  141.4120  167.0623 C.1     1  UNL1       -0.0807
      9 C         141.3116  140.4881  166.1951 C.1     1  UNL1        0.0039
     10 C         142.9171  142.3359  167.9295 C.3     1  UNL1        0.0766
     11 C         142.5368  142.5350  169.3667 C.3     1  UNL1        0.0140
     12 C         141.3234  143.3447  169.7162 C.3     1  UNL1        0.0010
     13 C         140.0481  142.6560  170.1027 C.3     1  UNL1        0.0000
     14 C         139.2829  140.3112  169.2866 C.3     1  UNL1        0.0000
     15 C         140.0221  141.1659  170.2729 C.3     1  UNL1        0.0000
     16 C         139.9716  138.7761  161.4757 C.1     1  UNL1        0.0039
     17 C         140.1043  138.8440  159.9831 C.1     1  UNL1       -0.0807
     18 C         140.2371  138.9120  158.4905 C.3     1  UNL1        0.0766
     19 C         141.5891  138.7936  157.8517 C.3     1  UNL1        0.0140
     20 C         142.7761  138.3939  158.6770 C.3     1  UNL1        0.0010
     21 C         143.5979  139.4428  159.3661 C.3     1  UNL1        0.0000
     22 C         144.0255  139.2448  160.7901 C.3     1  UNL1        0.0000
     23 C         143.7393  137.9470  161.4856 C.3     1  UNL1        0.0000
@<TRIPOS>UNITY_ATOM_ATTR
6 1
charge 1
@<TRIPOS>BOND
     1    14    15    1
     2    15    13    1
     3    13    12    1
     4    12    11    1
     5    11    10    1
     6    10     8    1
     7     8     9    3
     8     9     1    1
     9     1     2   ar
    10     2     3   ar
    11     3     4   ar
    12     4     5   ar
    13     5    16    1
    14    16    17    3
    15    17    18    1
    16    18    19    1
    17    19    20    1
    18    20    21    1
    19    21    22    1
    20    22    23    1
    21     5     6   ar
    22     6     7    1
    23     6     1   ar
@<TRIPOS>MOLECULE
*****
 23 23 0 0 0
SMALL
GASTEIGER

@<TRIPOS>ATOM
      1 C         140.7370  142.9886  162.5429 C.ar    1  UNL1        0.2698
      2 C         139.9165  144.1409  162.0440 C.ar    1  UNL1        0.0787
      3 C         139.1800  145.0139  163.0164 C.ar    1  UNL1        0.0136
      4 C         139.2641  144.7346  164.4877 C.ar    1  UNL1        0.0787
      5 C         140.0845  143.5823  164.9866 C.ar    1  UNL1        0.2698
      6 N         140.8210  142.7093  164.0142 N.ar    1  UNL1       -0.1494
      7 C         141.6415  141.5570  164.5133 C.3     1  UNL1        0.4092
      8 C         142.2099  141.2426  160.5981 C.1     1  UNL1       -0.0807
      9 C         141.4734  142.1156  161.5705 C.1     1  UNL1        0.0039
     10 C         142.9463  140.3697  159.6257 C.3     1  UNL1        0.0766
     11 C         143.0083  138.8873  159.8465 C.3     1  UNL1        0.0140
     12 C         143.9539  138.3193  160.8629 C.3     1  UNL1        0.0010
     13 C         143.7220  138.5672  162.3241 C.3     1  UNL1        0.0000
     14 C         144.9027  139.4586  164.4598 C.3     1  UNL1        0.0000
     15 C         144.4847  139.6478  163.0317 C.3     1  UNL1        0.0000
     16 C         140.1686  143.3029  166.4581 C.1     1  UNL1        0.0039
     17 C         140.2527  143.0235  167.9294 C.1     1  UNL1       -0.0807
     18 C         140.3368  142.7442  169.4008 C.3     1  UNL1        0.0766
     19 C         139.7893  141.4615  169.9531 C.3     1  UNL1        0.0140
     20 C         140.6855  140.5293  170.7132 C.3     1  UNL1        0.0010
     21 C         141.4660  139.4771  169.9825 C.3     1  UNL1        0.0000
     22 C         142.6184  139.8707  169.1069 C.3     1  UNL1        0.0000
     23 C         142.4722  139.8366  167.6145 C.3     1  UNL1        0.0000
@<TRIPOS>UNITY_ATOM_ATTR
6 1
charge 1
@<TRIPOS>BOND
     1    14    15    1
     2    15    13    1
     3    13    12    1
     4    12    11    1
     5    11    10    1
     6    10     8    1
     7     8     9    3
     8     9     1    1
     9     1     2   ar
    10     2     3   ar
    11     3     4   ar
    12     4     5   ar
    13     5    16    1
    14    16    17    3
    15    17    18    1
    16    18    19    1
    17    19    20    1
    18    20    21    1
    19    21    22    1
    20    22    23    1
    21     5     6   ar
    22     6     7    1
    23     6     1   ar
