@<TRIPOS>MOLECULE
*****
 40 45 0 0 0
SMALL
GASTEIGER

@<TRIPOS>ATOM
      1 C         137.7527  142.8713  163.0846 C.3     1  UNL1        0.0932
      2 C         137.6473  141.7481  164.0733 C.3     1  UNL1        0.0286
      3 C         137.7103  140.3256  163.6019 C.3     1  UNL1        0.0193
      4 C         137.8787  140.0261  162.1417 C.3     1  UNL1        0.0700
      5 C         137.9840  141.1492  161.1530 C.3     1  UNL1        0.0193
      6 C         137.9210  142.5718  161.6245 C.3     1  UNL1        0.0286
      7 C         137.8495  140.8215  162.3524 C.3     1  UNL1        0.1562
      8 O         137.7925  142.1078  162.7787 O.3     1  UNL1       -0.3572
      9 N         137.9416  138.6035  161.6703 N.3     1  UNL1       -0.2926
     10 H         137.3404  138.5386  160.8488 H       1  UNL1        0.1236
     11 C         139.2600  137.9967  161.2910 C.3     1  UNL1        0.1152
     12 C         140.4613  138.2070  162.1642 C.ar    1  UNL1        0.0765
     13 C         140.6221  137.4085  163.4238 C.ar    1  UNL1        0.0193
     14 C         141.8234  137.6188  164.2969 C.ar    1  UNL1        0.0411
     15 C         142.8641  138.6276  163.9106 C.ar    1  UNL1        0.1708
     16 C         142.7034  139.4262  162.6510 C.ar    1  UNL1        0.1682
     17 N         141.5020  139.2159  161.7778 N.ar    1  UNL1       -0.2304
     18 N         143.7440  140.4350  162.2647 N.am    1  UNL1       -0.2639
     19 C         144.9454  140.6453  163.1378 C.2     1  UNL1        0.2718
     20 O         145.9860  141.6542  162.7515 O.2     1  UNL1       -0.2707
     21 C         145.1061  139.8468  164.3974 C.3     1  UNL1        0.2898
     22 O         144.0655  138.8379  164.7838 O.3     1  UNL1       -0.4628
     23 H         143.6385  140.9591  161.4380 H       1  UNL1        0.1565
     24 C         137.6897  144.2938  163.5560 C.3     1  UNL1        0.0319
     25 C         138.8488  144.8899  164.2986 C.3     1  UNL1        0.0302
     26 C         140.9585  142.4015  167.3980 C.ar    1  UNL1        0.2250
     27 C         142.3500  141.9041  167.1403 C.ar    1  UNL1        0.0593
     28 C         143.0382  142.2362  165.8496 C.ar    1  UNL1        0.0254
     29 C         142.3350  143.0657  164.8165 C.ar    1  UNL1        0.0988
     30 N         143.0232  143.3978  163.5257 N.ar    1  UNL1       -0.2425
     31 C         142.3200  144.2273  162.4926 C.ar    1  UNL1        0.0997
     32 C         140.9285  144.7247  162.7502 C.ar    1  UNL1        0.0602
     33 C         140.2402  144.3926  164.0409 C.ar    1  UNL1       -0.0001
     34 C         140.9435  143.5630  165.0741 C.ar    1  UNL1        0.0979
     35 N         140.2553  143.2309  166.3648 N.ar    1  UNL1       -0.2105
     36 C         140.2252  145.5541  161.7170 C.3     1  UNL1        0.3422
     37 F         139.8397  146.9701  162.0274 F       1  UNL1       -0.1932
     38 F         139.9075  144.9676  160.3735 F       1  UNL1       -0.1932
     39 C         140.2610  143.0641  169.8113 C.3     1  UNL1        0.2542
     40 O         140.2703  142.0694  168.6887 O.3     1  UNL1       -0.4561
@<TRIPOS>BOND
     1    39    40    1
     2    40    26    1
     3    26    27   ar
     4    27    28   ar
     5    28    29   ar
     6    29    30   ar
     7    30    31   ar
     8    31    32   ar
     9    32    36    1
    10    36    37    1
    11    36    38    1
    12    32    33   ar
    13    33    25    1
    14    25    24    1
    15    24     1    1
    16     1     2    1
    17     2     3    1
    18     3     4    1
    19     4     9    1
    20     9    11    1
    21    11    12    1
    22    12    13   ar
    23    13    14   ar
    24    14    15   ar
    25    15    16   ar
    26    16    17   ar
    27    16    18    1
    28    18    19   am
    29    19    20    2
    30    19    21    1
    31    21    22    1
    32     4     5    1
    33     5     6    1
    34     4     7    1
    35     7     8    1
    36    33    34   ar
    37    34    35   ar
    38    35    26   ar
    39    34    29   ar
    40     6     1    1
    41     8     1    1
    42    17    12   ar
    43    22    15    1
    44     9    10    1
    45    18    23    1
@<TRIPOS>MOLECULE
*****
 40 45 0 0 0
SMALL
GASTEIGER

@<TRIPOS>ATOM
      1 C         144.4709  139.8126  163.6760 C.3     1  UNL1        0.0932
      2 C         143.5341  139.4305  164.7834 C.3     1  UNL1        0.0286
      3 C         142.3745  138.5209  164.5045 C.3     1  UNL1        0.0193
      4 C         142.1517  137.9933  163.1180 C.3     1  UNL1        0.0700
      5 C         143.0885  138.3754  162.0106 C.3     1  UNL1        0.0193
      6 C         144.2481  139.2851  162.2897 C.3     1  UNL1        0.0286
      7 C         142.8008  138.4889  163.2225 C.3     1  UNL1        0.1562
      8 O         143.8494  139.3114  163.4747 O.3     1  UNL1       -0.3572
      9 N         140.9921  137.0837  162.8391 N.3     1  UNL1       -0.2926
     10 H         140.8343  136.5392  163.6871 H       1  UNL1        0.1236
     11 C         139.6655  137.6599  162.4414 C.3     1  UNL1        0.1152
     12 C         139.1974  138.9510  163.0448 C.ar    1  UNL1        0.0765
     13 C         138.6169  138.9656  164.4279 C.ar    1  UNL1        0.0193
     14 C         138.1489  140.2567  165.0312 C.ar    1  UNL1        0.0411
     15 C         138.2613  141.5332  164.2515 C.ar    1  UNL1        0.1708
     16 C         138.8418  141.5186  162.8685 C.ar    1  UNL1        0.1682
     17 N         139.3099  140.2275  162.2651 N.ar    1  UNL1       -0.2304
     18 N         138.9542  142.7951  162.0888 N.am    1  UNL1       -0.2639
     19 C         138.4862  144.0862  162.6921 C.2     1  UNL1        0.2718
     20 O         138.5986  145.3627  161.9124 O.2     1  UNL1       -0.2707
     21 C         137.9057  144.1008  164.0752 C.3     1  UNL1        0.2898
     22 O         137.7932  142.8243  164.8549 O.3     1  UNL1       -0.4628
     23 H         139.3352  142.7855  161.1811 H       1  UNL1        0.1565
     24 C         145.6305  140.7223  163.9550 C.3     1  UNL1        0.0319
     25 C         145.6597  142.1020  163.3672 C.3     1  UNL1        0.0302
     26 C         144.0529  142.6299  159.1971 C.ar    1  UNL1        0.2250
     27 C         142.7719  143.3783  158.9761 C.ar    1  UNL1        0.0593
     28 C         142.0265  143.9508  160.1452 C.ar    1  UNL1        0.0254
     29 C         142.5621  143.7748  161.5352 C.ar    1  UNL1        0.0988
     30 N         141.8166  144.3473  162.7042 N.ar    1  UNL1       -0.2425
     31 C         142.3522  144.1713  164.0942 C.ar    1  UNL1        0.0997
     32 C         143.6333  143.4229  164.3152 C.ar    1  UNL1        0.0602
     33 C         144.3787  142.8504  163.1462 C.ar    1  UNL1       -0.0001
     34 C         143.8431  143.0264  161.7561 C.ar    1  UNL1        0.0979
     35 N         144.5885  142.4540  160.5871 N.ar    1  UNL1       -0.2105
     36 C         144.1689  143.2469  165.7052 C.3     1  UNL1        0.3422
     37 F         143.5464  142.2406  166.6270 F       1  UNL1       -0.1932
     38 F         145.3270  144.0774  166.1735 F       1  UNL1       -0.1932
     39 C         144.4983  140.6657  157.5559 C.3     1  UNL1        0.2542
     40 O         144.7983  142.0575  158.0281 O.3     1  UNL1       -0.4561
@<TRIPOS>BOND
     1    39    40    1
     2    40    26    1
     3    26    27   ar
     4    27    28   ar
     5    28    29   ar
     6    29    30   ar
     7    30    31   ar
     8    31    32   ar
     9    32    36    1
    10    36    37    1
    11    36    38    1
    12    32    33   ar
    13    33    25    1
    14    25    24    1
    15    24     1    1
    16     1     2    1
    17     2     3    1
    18     3     4    1
    19     4     9    1
    20     9    11    1
    21    11    12    1
    22    12    13   ar
    23    13    14   ar
    24    14    15   ar
    25    15    16   ar
    26    16    17   ar
    27    16    18    1
    28    18    19   am
    29    19    20    2
    30    19    21    1
    31    21    22    1
    32     4     5    1
    33     5     6    1
    34     4     7    1
    35     7     8    1
    36    33    34   ar
    37    34    35   ar
    38    35    26   ar
    39    34    29   ar
    40     6     1    1
    41     8     1    1
    42    17    12   ar
    43    22    15    1
    44     9    10    1
    45    18    23    1
@<TRIPOS>MOLECULE
*****
 40 45 0 0 0
SMALL
GASTEIGER

@<TRIPOS>ATOM
      1 C         142.1544  137.9921  164.0720 C.3     1  UNL1        0.0932
      2 C         142.4162  138.3353  162.6355 C.3     1  UNL1        0.0286
      3 C         143.5753  139.2161  162.2741 C.3     1  UNL1        0.0193
      4 C         144.4727  139.7537  163.3492 C.3     1  UNL1        0.0700
      5 C         144.2108  139.4104  164.7857 C.3     1  UNL1        0.0193
      6 C         143.0516  138.5296  165.1471 C.3     1  UNL1        0.0286
      7 C         143.8499  139.2749  163.5960 C.3     1  UNL1        0.1562
      8 O         142.8018  138.4785  163.9228 O.3     1  UNL1       -0.3572
      9 N         145.6318  140.6344  162.9878 N.3     1  UNL1       -0.2926
     10 H         145.7033  140.6243  161.9704 H       1  UNL1        0.1236
     11 C         145.6393  142.0743  163.4080 C.3     1  UNL1        0.1152
     12 C         144.4055  142.9109  163.2407 C.ar    1  UNL1        0.0765
     13 C         143.6738  143.4181  164.4479 C.ar    1  UNL1        0.0193
     14 C         142.4401  144.2547  164.2806 C.ar    1  UNL1        0.0411
     15 C         141.9380  144.5840  162.9060 C.ar    1  UNL1        0.1708
     16 C         142.6697  144.0768  161.6988 C.ar    1  UNL1        0.1682
     17 N         143.9035  143.2402  161.8661 N.ar    1  UNL1       -0.2304
     18 N         142.1676  144.4062  160.3242 N.am    1  UNL1       -0.2639
     19 C         140.9339  145.2427  160.1568 C.2     1  UNL1        0.2718
     20 O         140.4318  145.5721  158.7823 O.2     1  UNL1       -0.2707
     21 C         140.2021  145.7500  161.3641 C.3     1  UNL1        0.2898
     22 O         140.7042  145.4206  162.7387 O.3     1  UNL1       -0.4628
     23 H         142.6478  144.0733  159.5319 H       1  UNL1        0.1565
     24 C         140.9953  137.1113  164.4334 C.3     1  UNL1        0.0319
     25 C         139.6524  137.7172  164.7161 C.3     1  UNL1        0.0302
     26 C         140.6227  140.9837  167.6551 C.ar    1  UNL1        0.2250
     27 C         140.3563  142.4163  167.2991 C.ar    1  UNL1        0.0593
     28 C         139.7665  142.7600  165.9635 C.ar    1  UNL1        0.0254
     29 C         139.4431  141.6712  164.9838 C.ar    1  UNL1        0.0988
     30 N         138.8533  142.0149  163.6482 N.ar    1  UNL1       -0.2425
     31 C         138.5298  140.9261  162.6685 C.ar    1  UNL1        0.0997
     32 C         138.7962  139.4935  163.0244 C.ar    1  UNL1        0.0602
     33 C         139.3860  139.1497  164.3601 C.ar    1  UNL1       -0.0001
     34 C         139.7095  140.2387  165.3398 C.ar    1  UNL1        0.0979
     35 N         140.2993  139.8949  166.6754 N.ar    1  UNL1       -0.2105
     36 C         138.4728  138.4046  162.0448 C.3     1  UNL1        0.3422
     37 F         137.0447  138.1183  161.6861 F       1  UNL1       -0.1932
     38 F         139.5775  137.6021  161.4237 F       1  UNL1       -0.1932
     39 C         140.3292  140.1366  170.0936 C.3     1  UNL1        0.2542
     40 O         141.2125  140.6400  168.9908 O.3     1  UNL1       -0.4561
@<TRIPOS>BOND
     1    39    40    1
     2    40    26    1
     3    26    27   ar
     4    27    28   ar
     5    28    29   ar
     6    29    30   ar
     7    30    31   ar
     8    31    32   ar
     9    32    36    1
    10    36    37    1
    11    36    38    1
    12    32    33   ar
    13    33    25    1
    14    25    24    1
    15    24     1    1
    16     1     2    1
    17     2     3    1
    18     3     4    1
    19     4     9    1
    20     9    11    1
    21    11    12    1
    22    12    13   ar
    23    13    14   ar
    24    14    15   ar
    25    15    16   ar
    26    16    17   ar
    27    16    18    1
    28    18    19   am
    29    19    20    2
    30    19    21    1
    31    21    22    1
    32     4     5    1
    33     5     6    1
    34     4     7    1
    35     7     8    1
    36    33    34   ar
    37    34    35   ar
    38    35    26   ar
    39    34    29   ar
    40     6     1    1
    41     8     1    1
    42    17    12   ar
    43    22    15    1
    44     9    10    1
    45    18    23    1
@<TRIPOS>MOLECULE
*****
 40 45 0 0 0
SMALL
GASTEIGER

@<TRIPOS>ATOM
      1 C         138.0137  139.9247  161.8043 C.3     1  UNL1        0.0932
      2 C         138.5529  140.8346  160.7406 C.3     1  UNL1        0.0286
      3 C         138.4770  142.3222  160.9169 C.3     1  UNL1        0.0193
      4 C         137.8618  142.9001  162.1570 C.3     1  UNL1        0.0700
      5 C         137.3226  141.9902  163.2207 C.3     1  UNL1        0.0193
      6 C         137.3986  140.5025  163.0443 C.3     1  UNL1        0.0286
      7 C         137.8810  142.0785  162.1051 C.3     1  UNL1        0.1562
      8 O         137.9496  140.7334  161.9457 O.3     1  UNL1       -0.3572
      9 N         137.7859  144.3877  162.3334 N.3     1  UNL1       -0.2926
     10 H         136.9615  144.5748  162.9041 H       1  UNL1        0.1236
     11 C         138.9274  145.1272  162.9659 C.3     1  UNL1        0.1152
     12 C         140.0496  144.3669  163.6081 C.ar    1  UNL1        0.0765
     13 C         139.9377  143.9306  165.0390 C.ar    1  UNL1        0.0193
     14 C         141.0600  143.1703  165.6812 C.ar    1  UNL1        0.0411
     15 C         142.2941  142.8462  164.8926 C.ar    1  UNL1        0.1708
     16 C         142.4061  143.2825  163.4619 C.ar    1  UNL1        0.1682
     17 N         141.2838  144.0428  162.8196 N.ar    1  UNL1       -0.2304
     18 N         143.6402  142.9584  162.6733 N.am    1  UNL1       -0.2639
     19 C         144.7625  142.1981  163.3155 C.2     1  UNL1        0.2718
     20 O         145.9966  141.8740  162.5270 O.2     1  UNL1       -0.2707
     21 C         144.6506  141.7618  164.7464 C.3     1  UNL1        0.2898
     22 O         143.4164  142.0859  165.5349 O.3     1  UNL1       -0.4628
     23 H         143.7137  143.2447  161.7343 H       1  UNL1        0.1565
     24 C         138.0896  138.4371  161.6279 C.3     1  UNL1        0.0319
     25 C         138.6831  137.5830  162.7088 C.3     1  UNL1        0.0302
     26 C         142.5430  137.9578  160.4261 C.ar    1  UNL1        0.2250
     27 C         143.7912  138.3998  161.1307 C.ar    1  UNL1        0.0593
     28 C         143.7528  138.7169  162.5963 C.ar    1  UNL1        0.0254
     29 C         142.4662  138.5919  163.3573 C.ar    1  UNL1        0.0988
     30 N         142.4278  138.9090  164.8229 N.ar    1  UNL1       -0.2425
     31 C         141.1412  138.7840  165.5838 C.ar    1  UNL1        0.0997
     32 C         139.8929  138.3420  164.8791 C.ar    1  UNL1        0.0602
     33 C         139.9313  138.0250  163.4135 C.ar    1  UNL1       -0.0001
     34 C         141.2180  138.1499  162.6526 C.ar    1  UNL1        0.0979
     35 N         141.2564  137.8329  161.1870 N.ar    1  UNL1       -0.2105
     36 C         138.6063  138.2171  165.6400 C.3     1  UNL1        0.3422
     37 F         138.0618  136.8601  165.9750 F       1  UNL1       -0.1932
     38 F         137.8642  139.4491  166.0661 F       1  UNL1       -0.1932
     39 C         141.4377  138.0412  158.0763 C.3     1  UNL1        0.2542
     40 O         142.5814  137.6408  158.9604 O.3     1  UNL1       -0.4561
@<TRIPOS>BOND
     1    39    40    1
     2    40    26    1
     3    26    27   ar
     4    27    28   ar
     5    28    29   ar
     6    29    30   ar
     7    30    31   ar
     8    31    32   ar
     9    32    36    1
    10    36    37    1
    11    36    38    1
    12    32    33   ar
    13    33    25    1
    14    25    24    1
    15    24     1    1
    16     1     2    1
    17     2     3    1
    18     3     4    1
    19     4     9    1
    20     9    11    1
    21    11    12    1
    22    12    13   ar
    23    13    14   ar
    24    14    15   ar
    25    15    16   ar
    26    16    17   ar
    27    16    18    1
    28    18    19   am
    29    19    20    2
    30    19    21    1
    31    21    22    1
    32     4     5    1
    33     5     6    1
    34     4     7    1
    35     7     8    1
    36    33    34   ar
    37    34    35   ar
    38    35    26   ar
    39    34    29   ar
    40     6     1    1
    41     8     1    1
    42    17    12   ar
    43    22    15    1
    44     9    10    1
    45    18    23    1
@<TRIPOS>MOLECULE
*****
 40 45 0 0 0
SMALL
GASTEIGER

@<TRIPOS>ATOM
      1 C         141.5330  138.2986  164.2711 C.3     1  UNL1        0.0932
      2 C         141.7174  138.6581  162.8266 C.3     1  UNL1        0.0286
      3 C         142.9864  139.3173  162.3738 C.3     1  UNL1        0.0193
      4 C         144.0711  139.6170  163.3656 C.3     1  UNL1        0.0700
      5 C         143.8868  139.2575  164.8101 C.3     1  UNL1        0.0193
      6 C         142.6177  138.5983  165.2629 C.3     1  UNL1        0.0286
      7 C         143.3933  139.2547  163.6609 C.3     1  UNL1        0.1562
      8 O         142.2458  138.6586  164.0704 O.3     1  UNL1       -0.3572
      9 N         145.3401  140.2762  162.9128 N.3     1  UNL1       -0.2926
     10 H         145.4092  140.1221  161.9069 H       1  UNL1        0.1236
     11 C         145.5454  141.7444  163.1411 C.3     1  UNL1        0.1152
     12 C         144.3781  142.6841  163.0756 C.ar    1  UNL1        0.0765
     13 C         143.8006  143.2519  164.3382 C.ar    1  UNL1        0.0193
     14 C         142.6333  144.1916  164.2727 C.ar    1  UNL1        0.0411
     15 C         142.0434  144.5635  162.9447 C.ar    1  UNL1        0.1708
     16 C         142.6208  143.9956  161.6821 C.ar    1  UNL1        0.1682
     17 N         143.7882  143.0559  161.7476 N.ar    1  UNL1       -0.2304
     18 N         142.0310  144.3675  160.3540 N.am    1  UNL1       -0.2639
     19 C         140.8636  145.3072  160.2885 C.2     1  UNL1        0.2718
     20 O         140.2738  145.6790  158.9605 O.2     1  UNL1       -0.2707
     21 C         140.2861  145.8750  161.5511 C.3     1  UNL1        0.2898
     22 O         140.8760  145.5032  162.8792 O.3     1  UNL1       -0.4628
     23 H         142.4100  143.9948  159.5254 H       1  UNL1        0.1565
     24 C         140.2640  137.6394  164.7239 C.3     1  UNL1        0.0319
     25 C         139.1000  138.4765  165.1650 C.3     1  UNL1        0.0302
     26 C         138.0182  140.6442  161.3727 C.ar    1  UNL1        0.2250
     27 C         138.1052  142.1404  161.3133 C.ar    1  UNL1        0.0593
     28 C         138.5528  142.9142  162.5178 C.ar    1  UNL1        0.0254
     29 C         138.9134  142.1917  163.7819 C.ar    1  UNL1        0.0988
     30 N         139.3609  142.9654  164.9865 N.ar    1  UNL1       -0.2425
     31 C         139.7215  142.2429  166.2505 C.ar    1  UNL1        0.0997
     32 C         139.6346  140.7465  166.3101 C.ar    1  UNL1        0.0602
     33 C         139.1870  139.9728  165.1055 C.ar    1  UNL1       -0.0001
     34 C         138.8264  140.6954  163.8414 C.ar    1  UNL1        0.0979
     35 N         138.3788  139.9217  162.6368 N.ar    1  UNL1       -0.2105
     36 C         139.9951  140.0240  167.5741 C.3     1  UNL1        0.3422
     37 F         141.4361  139.7933  167.9212 F       1  UNL1       -0.1932
     38 F         138.9148  139.5322  168.4912 F       1  UNL1       -0.1932
     39 C         137.8609  140.3913  158.7918 C.3     1  UNL1        0.2542
     40 O         137.5706  139.8704  160.1682 O.3     1  UNL1       -0.4561
@<TRIPOS>BOND
     1    39    40    1
     2    40    26    1
     3    26    27   ar
     4    27    28   ar
     5    28    29   ar
     6    29    30   ar
     7    30    31   ar
     8    31    32   ar
     9    32    36    1
    10    36    37    1
    11    36    38    1
    12    32    33   ar
    13    33    25    1
    14    25    24    1
    15    24     1    1
    16     1     2    1
    17     2     3    1
    18     3     4    1
    19     4     9    1
    20     9    11    1
    21    11    12    1
    22    12    13   ar
    23    13    14   ar
    24    14    15   ar
    25    15    16   ar
    26    16    17   ar
    27    16    18    1
    28    18    19   am
    29    19    20    2
    30    19    21    1
    31    21    22    1
    32     4     5    1
    33     5     6    1
    34     4     7    1
    35     7     8    1
    36    33    34   ar
    37    34    35   ar
    38    35    26   ar
    39    34    29   ar
    40     6     1    1
    41     8     1    1
    42    17    12   ar
    43    22    15    1
    44     9    10    1
    45    18    23    1
@<TRIPOS>MOLECULE
*****
 40 45 0 0 0
SMALL
GASTEIGER

@<TRIPOS>ATOM
      1 C         138.0881  139.9752  161.9165 C.3     1  UNL1        0.0932
      2 C         138.8701  140.8131  160.9489 C.3     1  UNL1        0.0286
      3 C         138.9120  142.3037  161.1110 C.3     1  UNL1        0.0193
      4 C         138.1719  142.9565  162.2407 C.3     1  UNL1        0.0700
      5 C         137.3899  142.1185  163.2083 C.3     1  UNL1        0.0193
      6 C         137.3480  140.6278  163.0462 C.3     1  UNL1        0.0286
      7 C         138.1194  142.1362  162.1926 C.3     1  UNL1        0.1562
      8 O         138.0814  140.7883  162.0461 O.3     1  UNL1       -0.3572
      9 N         138.2139  144.4470  162.4028 N.3     1  UNL1       -0.2926
     10 H         137.4225  144.7013  162.9940 H       1  UNL1        0.1236
     11 C         139.4256  145.1032  162.9954 C.3     1  UNL1        0.1152
     12 C         140.3615  144.3100  163.8584 C.ar    1  UNL1        0.0765
     13 C         141.7457  143.9966  163.3727 C.ar    1  UNL1        0.0193
     14 C         142.6817  143.2034  164.2356 C.ar    1  UNL1        0.0411
     15 C         142.2336  142.7235  165.5842 C.ar    1  UNL1        0.1708
     16 C         140.8494  143.0369  166.0700 C.ar    1  UNL1        0.1682
     17 N         139.9134  143.8301  165.2070 N.ar    1  UNL1       -0.2304
     18 N         140.4013  142.5570  167.4186 N.am    1  UNL1       -0.2639
     19 C         141.3373  141.7638  168.2816 C.2     1  UNL1        0.2718
     20 O         140.8891  141.2839  169.6302 O.2     1  UNL1       -0.2707
     21 C         142.7215  141.4504  167.7959 C.3     1  UNL1        0.2898
     22 O         143.1696  141.9303  166.4472 O.3     1  UNL1       -0.4628
     23 H         139.4928  142.7627  167.7374 H       1  UNL1        0.1565
     24 C         138.0461  138.4846  161.7544 C.3     1  UNL1        0.0319
     25 C         138.7094  137.6009  162.7689 C.3     1  UNL1        0.0302
     26 C         142.5936  137.9064  160.5174 C.ar    1  UNL1        0.2250
     27 C         143.8338  138.3720  161.2211 C.ar    1  UNL1        0.0593
     28 C         143.7792  138.7357  162.6753 C.ar    1  UNL1        0.0254
     29 C         142.4845  138.6339  163.4258 C.ar    1  UNL1        0.0988
     30 N         142.4299  138.9976  164.8800 N.ar    1  UNL1       -0.2425
     31 C         141.1352  138.8958  165.6305 C.ar    1  UNL1        0.0997
     32 C         139.8949  138.4302  164.9268 C.ar    1  UNL1        0.0602
     33 C         139.9495  138.0664  163.4726 C.ar    1  UNL1       -0.0001
     34 C         141.2443  138.1683  162.7221 C.ar    1  UNL1        0.0979
     35 N         141.2989  137.8046  161.2679 N.ar    1  UNL1       -0.2105
     36 C         138.6002  138.3283  165.6773 C.3     1  UNL1        0.3422
     37 F         137.8350  139.5708  166.0248 F       1  UNL1       -0.1932
     38 F         138.0707  136.9840  166.0803 F       1  UNL1       -0.1932
     39 C         142.9066  138.6029  158.0341 C.3     1  UNL1        0.2542
     40 O         142.6482  137.5427  159.0632 O.3     1  UNL1       -0.4561
@<TRIPOS>BOND
     1    39    40    1
     2    40    26    1
     3    26    27   ar
     4    27    28   ar
     5    28    29   ar
     6    29    30   ar
     7    30    31   ar
     8    31    32   ar
     9    32    36    1
    10    36    37    1
    11    36    38    1
    12    32    33   ar
    13    33    25    1
    14    25    24    1
    15    24     1    1
    16     1     2    1
    17     2     3    1
    18     3     4    1
    19     4     9    1
    20     9    11    1
    21    11    12    1
    22    12    13   ar
    23    13    14   ar
    24    14    15   ar
    25    15    16   ar
    26    16    17   ar
    27    16    18    1
    28    18    19   am
    29    19    20    2
    30    19    21    1
    31    21    22    1
    32     4     5    1
    33     5     6    1
    34     4     7    1
    35     7     8    1
    36    33    34   ar
    37    34    35   ar
    38    35    26   ar
    39    34    29   ar
    40     6     1    1
    41     8     1    1
    42    17    12   ar
    43    22    15    1
    44     9    10    1
    45    18    23    1
@<TRIPOS>MOLECULE
*****
 40 45 0 0 0
SMALL
GASTEIGER

@<TRIPOS>ATOM
      1 C         143.7385  141.9506  163.9664 C.3     1  UNL1        0.0932
      2 C         142.8294  142.5183  165.0158 C.3     1  UNL1        0.0286
      3 C         142.0870  143.7951  164.7540 C.3     1  UNL1        0.0193
      4 C         142.2537  144.5043  163.4427 C.3     1  UNL1        0.0700
      5 C         143.1628  143.9365  162.3933 C.3     1  UNL1        0.0193
      6 C         143.9052  142.6596  162.6552 C.3     1  UNL1        0.0286
      7 C         142.6813  143.8074  163.5403 C.3     1  UNL1        0.1562
      8 O         143.3526  142.6529  163.7771 O.3     1  UNL1       -0.3572
      9 N         141.5114  145.7811  163.1809 N.3     1  UNL1       -0.2926
     10 H         142.1715  146.4199  162.7376 H       1  UNL1        0.1236
     11 C         140.2788  145.7702  162.3260 C.3     1  UNL1        0.1152
     12 C         139.5038  144.4990  162.1435 C.ar    1  UNL1        0.0765
     13 C         138.4970  144.0800  163.1735 C.ar    1  UNL1        0.0193
     14 C         137.7220  142.8088  162.9911 C.ar    1  UNL1        0.0411
     15 C         137.9537  141.9566  161.7786 C.ar    1  UNL1        0.1708
     16 C         138.9604  142.3756  160.7486 C.ar    1  UNL1        0.1682
     17 N         139.7355  143.6469  160.9311 N.ar    1  UNL1       -0.2304
     18 N         139.1921  141.5234  159.5362 N.am    1  UNL1       -0.2639
     19 C         138.4171  140.2522  159.3537 C.2     1  UNL1        0.2718
     20 O         138.6488  139.4000  158.1412 O.2     1  UNL1       -0.2707
     21 C         137.4103  139.8331  160.3837 C.3     1  UNL1        0.2898
     22 O         137.1786  140.6853  161.5961 O.3     1  UNL1       -0.4628
     23 H         139.8529  141.7984  158.8601 H       1  UNL1        0.1565
     24 C         144.4808  140.6737  164.2283 C.3     1  UNL1        0.0319
     25 C         143.7232  139.4070  164.4957 C.3     1  UNL1        0.0302
     26 C         139.7697  139.7224  166.6217 C.ar    1  UNL1        0.2250
     27 C         138.4958  139.4400  165.8820 C.ar    1  UNL1        0.0593
     28 C         138.5396  139.0525  164.4336 C.ar    1  UNL1        0.0254
     29 C         139.8574  138.9474  163.7249 C.ar    1  UNL1        0.0988
     30 N         139.9013  138.5598  162.2765 N.ar    1  UNL1       -0.2425
     31 C         141.2191  138.4547  161.5678 C.ar    1  UNL1        0.0997
     32 C         142.4931  138.7371  162.3075 C.ar    1  UNL1        0.0602
     33 C         142.4493  139.1246  163.7560 C.ar    1  UNL1       -0.0001
     34 C         141.1314  139.2297  164.4646 C.ar    1  UNL1        0.0979
     35 N         141.0875  139.6173  165.9131 N.ar    1  UNL1       -0.2105
     36 C         143.8109  138.6319  161.5989 C.3     1  UNL1        0.3422
     37 F         144.4841  137.2986  161.4610 F       1  UNL1       -0.1932
     38 F         144.4556  139.8602  161.0280 F       1  UNL1       -0.1932
     39 C         140.9716  140.0416  168.9029 C.3     1  UNL1        0.2542
     40 O         139.7259  140.1099  168.0701 O.3     1  UNL1       -0.4561
@<TRIPOS>BOND
     1    39    40    1
     2    40    26    1
     3    26    27   ar
     4    27    28   ar
     5    28    29   ar
     6    29    30   ar
     7    30    31   ar
     8    31    32   ar
     9    32    36    1
    10    36    37    1
    11    36    38    1
    12    32    33   ar
    13    33    25    1
    14    25    24    1
    15    24     1    1
    16     1     2    1
    17     2     3    1
    18     3     4    1
    19     4     9    1
    20     9    11    1
    21    11    12    1
    22    12    13   ar
    23    13    14   ar
    24    14    15   ar
    25    15    16   ar
    26    16    17   ar
    27    16    18    1
    28    18    19   am
    29    19    20    2
    30    19    21    1
    31    21    22    1
    32     4     5    1
    33     5     6    1
    34     4     7    1
    35     7     8    1
    36    33    34   ar
    37    34    35   ar
    38    35    26   ar
    39    34    29   ar
    40     6     1    1
    41     8     1    1
    42    17    12   ar
    43    22    15    1
    44     9    10    1
    45    18    23    1
@<TRIPOS>MOLECULE
*****
 40 45 0 0 0
SMALL
GASTEIGER

@<TRIPOS>ATOM
      1 C         138.2875  140.2890  164.0885 C.3     1  UNL1        0.0932
      2 C         138.2829  140.5222  162.6068 C.3     1  UNL1        0.0286
      3 C         138.0953  141.9087  162.0663 C.3     1  UNL1        0.0193
      4 C         137.9123  143.0623  163.0075 C.3     1  UNL1        0.0700
      5 C         137.9169  142.8292  164.4893 C.3     1  UNL1        0.0193
      6 C         138.1045  141.4425  165.0298 C.3     1  UNL1        0.0286
      7 C         138.0116  142.3205  163.3507 C.3     1  UNL1        0.1562
      8 O         138.1812  141.0667  163.8395 O.3     1  UNL1       -0.3572
      9 N         137.7248  144.4489  162.4670 N.3     1  UNL1       -0.2926
     10 H         136.9733  144.8766  163.0080 H       1  UNL1        0.1236
     11 C         138.8696  145.4180  162.4746 C.3     1  UNL1        0.1152
     12 C         140.2810  144.9120  162.4306 C.ar    1  UNL1        0.0765
     13 C         141.1833  145.1023  163.6137 C.ar    1  UNL1        0.0193
     14 C         142.5946  144.5963  163.5697 C.ar    1  UNL1        0.0411
     15 C         143.1037  143.8999  162.3426 C.ar    1  UNL1        0.1708
     16 C         142.2016  143.7095  161.1595 C.ar    1  UNL1        0.1682
     17 N         140.7901  144.2156  161.2035 N.ar    1  UNL1       -0.2304
     18 N         142.7107  143.0132  159.9324 N.am    1  UNL1       -0.2639
     19 C         144.1220  142.5071  159.8883 C.2     1  UNL1        0.2718
     20 O         144.6312  141.8107  158.6612 O.2     1  UNL1       -0.2707
     21 C         145.0243  142.6975  161.0715 C.3     1  UNL1        0.2898
     22 O         144.5152  143.3938  162.2986 O.3     1  UNL1       -0.4628
     23 H         142.1185  142.8882  159.1559 H       1  UNL1        0.1565
     24 C         138.4750  138.9025  164.6291 C.3     1  UNL1        0.0319
     25 C         139.8036  138.4894  165.1898 C.3     1  UNL1        0.0302
     26 C         140.9853  141.2642  168.5296 C.ar    1  UNL1        0.2250
     27 C         142.1771  142.1614  168.3730 C.ar    1  UNL1        0.0593
     28 C         142.9751  142.1336  167.1031 C.ar    1  UNL1        0.0254
     29 C         142.5812  141.2087  165.9899 C.ar    1  UNL1        0.0988
     30 N         143.3792  141.1809  164.7201 N.ar    1  UNL1       -0.2425
     31 C         142.9853  140.2560  163.6068 C.ar    1  UNL1        0.0997
     32 C         141.7934  139.3588  163.7634 C.ar    1  UNL1        0.0602
     33 C         140.9954  139.3866  165.0332 C.ar    1  UNL1       -0.0001
     34 C         141.3894  140.3116  166.1465 C.ar    1  UNL1        0.0979
     35 N         140.5914  140.3393  167.4163 N.ar    1  UNL1       -0.2105
     36 C         141.3995  138.4339  162.6502 C.3     1  UNL1        0.3422
     37 F         140.9539  138.9939  161.3319 F       1  UNL1       -0.1932
     38 F         141.4512  136.9488  162.8551 F       1  UNL1       -0.1932
     39 C         140.7996  140.8088  171.0806 C.3     1  UNL1        0.2542
     40 O         140.1873  141.2920  169.7994 O.3     1  UNL1       -0.4561
@<TRIPOS>BOND
     1    39    40    1
     2    40    26    1
     3    26    27   ar
     4    27    28   ar
     5    28    29   ar
     6    29    30   ar
     7    30    31   ar
     8    31    32   ar
     9    32    36    1
    10    36    37    1
    11    36    38    1
    12    32    33   ar
    13    33    25    1
    14    25    24    1
    15    24     1    1
    16     1     2    1
    17     2     3    1
    18     3     4    1
    19     4     9    1
    20     9    11    1
    21    11    12    1
    22    12    13   ar
    23    13    14   ar
    24    14    15   ar
    25    15    16   ar
    26    16    17   ar
    27    16    18    1
    28    18    19   am
    29    19    20    2
    30    19    21    1
    31    21    22    1
    32     4     5    1
    33     5     6    1
    34     4     7    1
    35     7     8    1
    36    33    34   ar
    37    34    35   ar
    38    35    26   ar
    39    34    29   ar
    40     6     1    1
    41     8     1    1
    42    17    12   ar
    43    22    15    1
    44     9    10    1
    45    18    23    1
@<TRIPOS>MOLECULE
*****
 40 45 0 0 0
SMALL
GASTEIGER

@<TRIPOS>ATOM
      1 C         142.1122  142.5476  165.8067 C.3     1  UNL1        0.0932
      2 C         140.7776  142.7158  166.4703 C.3     1  UNL1        0.0286
      3 C         139.7212  143.5638  165.8261 C.3     1  UNL1        0.0193
      4 C         139.9995  144.2437  164.5183 C.3     1  UNL1        0.0700
      5 C         141.3342  144.0755  163.8547 C.3     1  UNL1        0.0193
      6 C         142.3906  143.2274  164.4989 C.3     1  UNL1        0.0286
      7 C         140.6096  143.7890  164.8329 C.3     1  UNL1        0.1562
      8 O         141.5648  143.0222  165.4154 O.3     1  UNL1       -0.3572
      9 N         138.9432  145.0917  163.8741 N.3     1  UNL1       -0.2926
     10 H         139.4115  145.6590  163.1675 H       1  UNL1        0.1236
     11 C         137.7689  144.4447  163.2016 C.3     1  UNL1        0.1152
     12 C         137.9530  143.1686  162.4350 C.ar    1  UNL1        0.0765
     13 C         137.5111  141.8651  163.0313 C.ar    1  UNL1        0.0193
     14 C         137.6952  140.5890  162.2647 C.ar    1  UNL1        0.0411
     15 C         138.3212  140.6164  160.9019 C.ar    1  UNL1        0.1708
     16 C         138.7631  141.9199  160.3056 C.ar    1  UNL1        0.1682
     17 N         138.5790  143.1960  161.0722 N.ar    1  UNL1       -0.2304
     18 N         139.3891  141.9473  158.9428 N.am    1  UNL1       -0.2639
     19 C         139.5732  140.6712  158.1762 C.2     1  UNL1        0.2718
     20 O         140.1993  140.6986  156.8133 O.2     1  UNL1       -0.2707
     21 C         139.1313  139.3676  158.7725 C.3     1  UNL1        0.2898
     22 O         138.5053  139.3402  160.1353 O.3     1  UNL1       -0.4628
     23 H         139.6792  142.8028  158.5514 H       1  UNL1        0.1565
     24 C         143.1685  141.6995  166.4508 C.3     1  UNL1        0.0319
     25 C         143.0499  140.2044  166.4235 C.3     1  UNL1        0.0302
     26 C         138.8637  138.5776  166.1426 C.ar    1  UNL1        0.2250
     27 C         138.4111  137.8838  164.8921 C.ar    1  UNL1        0.0593
     28 C         139.3538  137.7323  163.7352 C.ar    1  UNL1        0.0254
     29 C         140.7492  138.2746  163.8289 C.ar    1  UNL1        0.0988
     30 N         141.6919  138.1231  162.6720 N.ar    1  UNL1       -0.2425
     31 C         143.0873  138.6654  162.7656 C.ar    1  UNL1        0.0997
     32 C         143.5400  139.3592  164.0162 C.ar    1  UNL1        0.0602
     33 C         142.5973  139.5107  165.1730 C.ar    1  UNL1       -0.0001
     34 C         141.2018  138.9684  165.0794 C.ar    1  UNL1        0.0979
     35 N         140.2591  139.1198  166.2362 N.ar    1  UNL1       -0.2105
     36 C         144.9354  139.9015  164.1098 C.3     1  UNL1        0.3422
     37 F         145.2651  141.2326  163.5021 F       1  UNL1       -0.1932
     38 F         146.0011  139.1126  164.8112 F       1  UNL1       -0.1932
     39 C         136.8996  137.6666  167.5787 C.3     1  UNL1        0.2542
     40 O         137.9210  138.7291  167.2994 O.3     1  UNL1       -0.4561
@<TRIPOS>BOND
     1    39    40    1
     2    40    26    1
     3    26    27   ar
     4    27    28   ar
     5    28    29   ar
     6    29    30   ar
     7    30    31   ar
     8    31    32   ar
     9    32    36    1
    10    36    37    1
    11    36    38    1
    12    32    33   ar
    13    33    25    1
    14    25    24    1
    15    24     1    1
    16     1     2    1
    17     2     3    1
    18     3     4    1
    19     4     9    1
    20     9    11    1
    21    11    12    1
    22    12    13   ar
    23    13    14   ar
    24    14    15   ar
    25    15    16   ar
    26    16    17   ar
    27    16    18    1
    28    18    19   am
    29    19    20    2
    30    19    21    1
    31    21    22    1
    32     4     5    1
    33     5     6    1
    34     4     7    1
    35     7     8    1
    36    33    34   ar
    37    34    35   ar
    38    35    26   ar
    39    34    29   ar
    40     6     1    1
    41     8     1    1
    42    17    12   ar
    43    22    15    1
    44     9    10    1
    45    18    23    1
