@<TRIPOS>MOLECULE
*****
 52 57 0 0 0
SMALL
GASTEIGER

@<TRIPOS>ATOM
      1 C         141.4489  143.6814  160.4000 C.3     1  UNL1        0.0840
      2 C         142.5054  143.3191  159.3988 C.3     1  UNL1        0.0376
      3 C         142.6747  144.1418  158.1561 C.3     1  UNL1        0.0738
      4 N         141.7875  145.3269  157.9145 N.3     1  UNL1       -0.2726
      5 C         140.7310  145.6894  158.9158 C.3     1  UNL1        0.0738
      6 C         140.5617  144.8666  160.1585 C.3     1  UNL1        0.0376
      7 N         142.0583  142.2097  164.0350 N.am    1  UNL1       -0.2844
      8 C         142.2276  143.0325  162.7922 C.2     1  UNL1        0.3079
      9 O         143.3448  144.0290  162.6989 O.2     1  UNL1       -0.2522
     10 N         141.2796  142.8587  161.6428 N.am    1  UNL1       -0.2448
     11 H         141.3250  141.5557  164.0962 H       1  UNL1        0.1513
     12 C         140.1624  141.8622  161.7361 C.ar    1  UNL1        0.0574
     13 C         138.8239  142.2836  162.2661 C.ar    1  UNL1        0.0151
     14 C         137.7066  141.2870  162.3594 C.ar    1  UNL1        0.0036
     15 C         137.9279  139.8691  161.9228 C.ar    1  UNL1        0.0297
     16 C         139.2664  139.4478  161.3928 C.ar    1  UNL1        0.1414
     17 F         139.4877  138.0299  160.9562 F       1  UNL1       -0.2041
     18 C         140.3836  140.4443  161.2995 C.ar    1  UNL1        0.0446
     19 C         143.0062  142.3835  165.1844 C.3     1  UNL1        0.1177
     20 C         141.4612  142.2852  169.4097 C.ar    1  UNL1        0.0684
     21 C         140.5021  142.4089  168.2631 C.ar    1  UNL1        0.0100
     22 C         141.0171  142.4417  166.8547 C.ar    1  UNL1       -0.0019
     23 C         142.4912  142.3507  166.5928 C.ar    1  UNL1       -0.0025
     24 C         143.4503  142.2270  167.7394 C.ar    1  UNL1       -0.0019
     25 C         142.9353  142.1942  169.1479 C.ar    1  UNL1        0.0100
     26 N         140.4312  142.2197  172.2266 N.1     1  UNL1       -0.1908
     27 C         140.9462  142.2524  170.8182 C.1     1  UNL1        0.1004
     28 C         141.9568  146.1497  156.6718 C.3     1  UNL1        0.0724
     29 C         141.3309  145.7014  155.3845 C.3     1  UNL1        0.0215
     30 C         139.9030  145.2422  155.3648 C.3     1  UNL1        0.0236
     31 C         140.5933  143.9355  155.6215 C.3     1  UNL1        0.0257
     32 C         139.7882  142.6788  155.7718 C.3     1  UNL1        0.0940
     33 N         138.2929  142.7288  155.6653 N.am    1  UNL1       -0.2759
     34 C         137.4878  141.4721  155.8155 C.2     1  UNL1        0.2534
     35 O         135.9924  141.5222  155.7089 O.2     1  UNL1       -0.2697
     36 C         137.6026  144.0355  155.4085 C.3     1  UNL1        0.0940
     37 C         138.4077  145.2923  155.2582 C.3     1  UNL1        0.0257
     38 C         138.1781  140.1654  156.0723 C.ar    1  UNL1        0.1083
     39 C         138.8374  139.9129  157.3957 C.ar    1  UNL1        0.1467
     40 F         138.8065  140.9670  158.4624 F       1  UNL1       -0.2039
     41 C         139.5278  138.6061  157.6525 C.ar    1  UNL1        0.0299
     42 C         139.5587  137.5520  156.5858 C.ar    1  UNL1        0.0046
     43 C         138.8994  137.8045  155.2624 C.ar    1  UNL1        0.0299
     44 C         138.2091  139.1112  155.0056 C.ar    1  UNL1        0.1467
     45 F         137.5497  139.3639  153.6822 F       1  UNL1       -0.2039
     46 C         139.7086  146.7084  155.1148 C.ar    1  UNL1       -0.0204
     47 C         140.2842  147.3420  153.8830 C.ar    1  UNL1       -0.0041
     48 C         140.0898  148.8082  153.6331 C.ar    1  UNL1        0.0020
     49 C         139.3199  149.6408  154.6149 C.ar    1  UNL1        0.0296
     50 C         138.7444  149.0072  155.8467 C.ar    1  UNL1        0.1398
     51 F         137.9745  149.8399  156.8285 F       1  UNL1       -0.2042
     52 C         138.9388  147.5410  156.0967 C.ar    1  UNL1        0.0254
@<TRIPOS>BOND
     1    26    27    3
     2    27    20    1
     3    20    21   ar
     4    21    22   ar
     5    22    23   ar
     6    23    19    1
     7    19     7    1
     8     7     8   am
     9     8     9    2
    10     8    10   am
    11    10    12    1
    12    12    13   ar
    13    13    14   ar
    14    14    15   ar
    15    15    16   ar
    16    16    17    1
    17    16    18   ar
    18    10     1    1
    19     1     2    1
    20     2     3    1
    21     3     4    1
    22     4    28    1
    23    28    29    1
    24    29    30    1
    25    30    46    1
    26    46    47   ar
    27    47    48   ar
    28    48    49   ar
    29    49    50   ar
    30    50    51    1
    31    50    52   ar
    32    30    31    1
    33    31    32    1
    34    32    33    1
    35    33    34   am
    36    34    35    2
    37    34    38    1
    38    38    39   ar
    39    39    40    1
    40    39    41   ar
    41    41    42   ar
    42    42    43   ar
    43    43    44   ar
    44    44    45    1
    45    33    36    1
    46    36    37    1
    47     4     5    1
    48     5     6    1
    49    23    24   ar
    50    24    25   ar
    51    25    20   ar
    52    18    12   ar
    53     6     1    1
    54    37    30    1
    55    52    46   ar
    56    44    38   ar
    57     7    11    1
@<TRIPOS>MOLECULE
*****
 52 57 0 0 0
SMALL
GASTEIGER

@<TRIPOS>ATOM
      1 C         140.6351  140.2149  158.8186 C.3     1  UNL1        0.0840
      2 C         140.9293  139.7204  160.2038 C.3     1  UNL1        0.0376
      3 C         140.2086  140.3102  161.3797 C.3     1  UNL1        0.0738
      4 N         139.1937  141.3947  161.1703 N.3     1  UNL1       -0.2726
      5 C         138.8995  141.8893  159.7851 C.3     1  UNL1        0.0738
      6 C         139.6202  141.2994  158.6092 C.3     1  UNL1        0.0376
      7 N         141.6338  137.7192  155.8990 N.am    1  UNL1       -0.2844
      8 C         140.9131  138.3091  157.0748 C.2     1  UNL1        0.3079
      9 O         139.7497  137.5832  157.6827 O.2     1  UNL1       -0.2522
     10 N         141.3558  139.6250  157.6428 N.am    1  UNL1       -0.2448
     11 H         142.3974  138.1957  155.5000 H       1  UNL1        0.1513
     12 C         142.5192  140.3509  157.0349 C.ar    1  UNL1        0.0574
     13 C         143.8682  140.2852  157.6875 C.ar    1  UNL1        0.0151
     14 C         145.0316  141.0112  157.0796 C.ar    1  UNL1        0.0036
     15 C         144.8460  141.8028  155.8191 C.ar    1  UNL1        0.0297
     16 C         143.4970  141.8685  155.1665 C.ar    1  UNL1        0.1414
     17 F         143.3113  142.6601  153.9060 F       1  UNL1       -0.2041
     18 C         142.3336  141.1426  155.7744 C.ar    1  UNL1        0.0446
     19 C         141.1911  136.4034  155.3310 C.3     1  UNL1        0.1177
     20 C         143.0654  132.5798  156.7861 C.ar    1  UNL1        0.0684
     21 C         141.9845  132.5372  155.7470 C.ar    1  UNL1        0.0100
     22 C         141.3597  133.8118  155.2619 C.ar    1  UNL1       -0.0019
     23 C         141.8159  135.1289  155.8160 C.ar    1  UNL1       -0.0025
     24 C         142.8968  135.1715  156.8551 C.ar    1  UNL1       -0.0019
     25 C         143.5215  133.8969  157.3401 C.ar    1  UNL1        0.0100
     26 N         144.3149  130.0308  157.7561 N.1     1  UNL1       -0.1908
     27 C         143.6902  131.3053  157.2711 C.1     1  UNL1        0.1004
     28 C         138.4730  141.9846  162.3462 C.3     1  UNL1        0.0724
     29 C         138.9190  143.2979  162.9174 C.3     1  UNL1        0.0215
     30 C         140.2623  143.4124  163.5750 C.3     1  UNL1        0.0236
     31 C         139.4956  142.7262  164.6664 C.3     1  UNL1        0.0257
     32 C         140.1764  142.3789  165.9572 C.3     1  UNL1        0.0940
     33 N         141.6239  142.7179  166.1564 N.am    1  UNL1       -0.2759
     34 C         142.3048  142.3707  167.4471 C.2     1  UNL1        0.2534
     35 O         143.7524  142.7097  167.6463 O.2     1  UNL1       -0.2697
     36 C         142.3907  143.4041  165.0650 C.3     1  UNL1        0.0940
     37 C         141.7098  143.7514  163.7742 C.3     1  UNL1        0.0257
     38 C         141.5381  141.6845  168.5386 C.ar    1  UNL1        0.1083
     39 C         140.4485  142.4166  169.2642 C.ar    1  UNL1        0.1467
     40 F         140.1255  143.8351  168.8984 F       1  UNL1       -0.2039
     41 C         139.6818  141.7304  170.3556 C.ar    1  UNL1        0.0299
     42 C         140.0048  140.3120  170.7214 C.ar    1  UNL1        0.0046
     43 C         141.0944  139.5798  169.9958 C.ar    1  UNL1        0.0299
     44 C         141.8611  140.2660  168.9044 C.ar    1  UNL1        0.1467
     45 F         142.9508  139.5339  168.1787 F       1  UNL1       -0.2039
     46 C         140.5624  144.0588  162.2552 C.ar    1  UNL1       -0.0204
     47 C         139.7375  145.2196  161.7838 C.ar    1  UNL1       -0.0041
     48 C         140.0376  145.8661  160.4639 C.ar    1  UNL1        0.0020
     49 C         141.1626  145.3518  159.6155 C.ar    1  UNL1        0.0296
     50 C         141.9875  144.1910  160.0869 C.ar    1  UNL1        0.1398
     51 F         143.1125  143.6768  159.2384 F       1  UNL1       -0.2042
     52 C         141.6874  143.5446  161.4067 C.ar    1  UNL1        0.0254
@<TRIPOS>BOND
     1    26    27    3
     2    27    20    1
     3    20    21   ar
     4    21    22   ar
     5    22    23   ar
     6    23    19    1
     7    19     7    1
     8     7     8   am
     9     8     9    2
    10     8    10   am
    11    10    12    1
    12    12    13   ar
    13    13    14   ar
    14    14    15   ar
    15    15    16   ar
    16    16    17    1
    17    16    18   ar
    18    10     1    1
    19     1     2    1
    20     2     3    1
    21     3     4    1
    22     4    28    1
    23    28    29    1
    24    29    30    1
    25    30    46    1
    26    46    47   ar
    27    47    48   ar
    28    48    49   ar
    29    49    50   ar
    30    50    51    1
    31    50    52   ar
    32    30    31    1
    33    31    32    1
    34    32    33    1
    35    33    34   am
    36    34    35    2
    37    34    38    1
    38    38    39   ar
    39    39    40    1
    40    39    41   ar
    41    41    42   ar
    42    42    43   ar
    43    43    44   ar
    44    44    45    1
    45    33    36    1
    46    36    37    1
    47     4     5    1
    48     5     6    1
    49    23    24   ar
    50    24    25   ar
    51    25    20   ar
    52    18    12   ar
    53     6     1    1
    54    37    30    1
    55    52    46   ar
    56    44    38   ar
    57     7    11    1
@<TRIPOS>MOLECULE
*****
 52 57 0 0 0
SMALL
GASTEIGER

@<TRIPOS>ATOM
      1 C         141.9484  143.1140  160.2545 C.3     1  UNL1        0.0840
      2 C         140.9479  144.2277  160.1614 C.3     1  UNL1        0.0376
      3 C         140.9763  145.1655  158.9910 C.3     1  UNL1        0.0738
      4 N         142.0050  144.9895  157.9137 N.3     1  UNL1       -0.2726
      5 C         143.0056  143.8757  158.0068 C.3     1  UNL1        0.0738
      6 C         142.9773  142.9380  159.1772 C.3     1  UNL1        0.0376
      7 N         142.5860  141.6112  163.8719 N.am    1  UNL1       -0.2844
      8 C         142.6143  142.5489  162.7014 C.2     1  UNL1        0.3079
      9 O         143.3368  143.8591  162.8074 O.2     1  UNL1       -0.2522
     10 N         141.9201  142.1763  161.4250 N.am    1  UNL1       -0.2448
     11 H         142.1118  140.7512  163.8023 H       1  UNL1        0.1513
     12 C         141.1975  140.8661  161.3190 C.ar    1  UNL1        0.0574
     13 C         141.9291  139.6416  160.8548 C.ar    1  UNL1        0.0151
     14 C         141.2065  138.3314  160.7488 C.ar    1  UNL1        0.0036
     15 C         139.7524  138.2457  161.1070 C.ar    1  UNL1        0.0297
     16 C         139.0209  139.4702  161.5711 C.ar    1  UNL1        0.1414
     17 F         137.5668  139.3845  161.9293 F       1  UNL1       -0.2041
     18 C         139.7434  140.7804  161.6771 C.ar    1  UNL1        0.0446
     19 C         143.2802  141.9837  165.1483 C.3     1  UNL1        0.1177
     20 C         140.8741  142.8060  168.8610 C.ar    1  UNL1        0.0684
     21 C         142.3284  142.4560  168.9720 C.ar    1  UNL1        0.0100
     22 C         143.1304  142.1818  167.7344 C.ar    1  UNL1       -0.0019
     23 C         142.4781  142.2578  166.3859 C.ar    1  UNL1       -0.0025
     24 C         141.0238  142.6078  166.2749 C.ar    1  UNL1       -0.0019
     25 C         140.2218  142.8820  167.5124 C.ar    1  UNL1        0.0100
     26 N         139.2700  143.3542  171.3362 N.1     1  UNL1       -0.1908
     27 C         140.0720  143.0801  170.0986 C.1     1  UNL1        0.1004
     28 C         142.0334  145.9272  156.7433 C.3     1  UNL1        0.0724
     29 C         141.3527  145.5478  155.4616 C.3     1  UNL1        0.0215
     30 C         139.9322  145.0664  155.4808 C.3     1  UNL1        0.0236
     31 C         140.6522  143.7595  155.6350 C.3     1  UNL1        0.0257
     32 C         139.8729  142.4832  155.7526 C.3     1  UNL1        0.0940
     33 N         138.3737  142.5137  155.7159 N.am    1  UNL1       -0.2759
     34 C         137.5944  141.2374  155.8334 C.2     1  UNL1        0.2534
     35 O         136.0952  141.2680  155.7967 O.2     1  UNL1       -0.2697
     36 C         137.6537  143.8205  155.5616 C.3     1  UNL1        0.0940
     37 C         138.4330  145.0969  155.4441 C.3     1  UNL1        0.0257
     38 C         138.3145  139.9306  155.9877 C.ar    1  UNL1        0.1083
     39 C         138.3077  138.9337  154.8669 C.ar    1  UNL1        0.1467
     40 F         137.5809  139.2436  153.5918 F       1  UNL1       -0.2039
     41 C         139.0277  137.6269  155.0211 C.ar    1  UNL1        0.0299
     42 C         139.7545  137.3170  156.2962 C.ar    1  UNL1        0.0046
     43 C         139.7613  138.3138  157.4170 C.ar    1  UNL1        0.0299
     44 C         139.0413  139.6207  157.2627 C.ar    1  UNL1        0.1467
     45 F         139.0480  140.6176  158.3835 F       1  UNL1       -0.2039
     46 C         139.7055  146.5404  155.3199 C.ar    1  UNL1       -0.0204
     47 C         138.9764  147.3075  156.3829 C.ar    1  UNL1       -0.0041
     48 C         138.7498  148.7815  156.2220 C.ar    1  UNL1        0.0020
     49 C         139.2523  149.4884  154.9982 C.ar    1  UNL1        0.0296
     50 C         139.9814  148.7213  153.9352 C.ar    1  UNL1        0.1398
     51 F         140.4838  149.4282  152.7114 F       1  UNL1       -0.2042
     52 C         140.2080  147.2472  154.0961 C.ar    1  UNL1        0.0254
@<TRIPOS>BOND
     1    26    27    3
     2    27    20    1
     3    20    21   ar
     4    21    22   ar
     5    22    23   ar
     6    23    19    1
     7    19     7    1
     8     7     8   am
     9     8     9    2
    10     8    10   am
    11    10    12    1
    12    12    13   ar
    13    13    14   ar
    14    14    15   ar
    15    15    16   ar
    16    16    17    1
    17    16    18   ar
    18    10     1    1
    19     1     2    1
    20     2     3    1
    21     3     4    1
    22     4    28    1
    23    28    29    1
    24    29    30    1
    25    30    46    1
    26    46    47   ar
    27    47    48   ar
    28    48    49   ar
    29    49    50   ar
    30    50    51    1
    31    50    52   ar
    32    30    31    1
    33    31    32    1
    34    32    33    1
    35    33    34   am
    36    34    35    2
    37    34    38    1
    38    38    39   ar
    39    39    40    1
    40    39    41   ar
    41    41    42   ar
    42    42    43   ar
    43    43    44   ar
    44    44    45    1
    45    33    36    1
    46    36    37    1
    47     4     5    1
    48     5     6    1
    49    23    24   ar
    50    24    25   ar
    51    25    20   ar
    52    18    12   ar
    53     6     1    1
    54    37    30    1
    55    52    46   ar
    56    44    38   ar
    57     7    11    1
@<TRIPOS>MOLECULE
*****
 52 57 0 0 0
SMALL
GASTEIGER

@<TRIPOS>ATOM
      1 C         140.4027  140.2678  158.5331 C.3     1  UNL1        0.0840
      2 C         140.8017  139.6792  159.8537 C.3     1  UNL1        0.0376
      3 C         140.1845  140.1925  161.1209 C.3     1  UNL1        0.0738
      4 N         139.1682  141.2945  161.0673 N.3     1  UNL1       -0.2726
      5 C         138.7692  141.8832  159.7466 C.3     1  UNL1        0.0738
      6 C         139.3864  141.3699  158.4795 C.3     1  UNL1        0.0376
      7 N         141.1858  137.9323  155.4214 N.am    1  UNL1       -0.2844
      8 C         140.5686  138.4456  156.6886 C.2     1  UNL1        0.3079
      9 O         139.5002  137.6502  157.3783 O.2     1  UNL1       -0.2522
     10 N         141.0199  139.7545  157.2660 N.am    1  UNL1       -0.2448
     11 H         141.8871  138.4544  154.9688 H       1  UNL1        0.1513
     12 C         142.0882  140.5500  156.5763 C.ar    1  UNL1        0.0574
     13 C         141.7184  141.5299  155.5025 C.ar    1  UNL1        0.0151
     14 C         142.7869  142.3254  154.8128 C.ar    1  UNL1        0.0036
     15 C         144.2251  142.1410  155.1969 C.ar    1  UNL1        0.0297
     16 C         144.5949  141.1610  156.2706 C.ar    1  UNL1        0.1414
     17 F         146.0331  140.9766  156.6547 F       1  UNL1       -0.2041
     18 C         143.5265  140.3655  156.9603 C.ar    1  UNL1        0.0446
     19 C         140.7346  136.6235  154.8440 C.3     1  UNL1        0.1177
     20 C         143.2869  132.9496  155.3323 C.ar    1  UNL1        0.0684
     21 C         142.5002  133.1542  154.0717 C.ar    1  UNL1        0.0100
     22 C         141.6494  134.3788  153.9089 C.ar    1  UNL1       -0.0019
     23 C         141.5854  135.3989  155.0068 C.ar    1  UNL1       -0.0025
     24 C         142.3721  135.1943  156.2674 C.ar    1  UNL1       -0.0019
     25 C         143.2228  133.9696  156.4301 C.ar    1  UNL1        0.0100
     26 N         144.9883  130.5003  155.6578 N.1     1  UNL1       -0.1908
     27 C         144.1376  131.7249  155.4950 C.1     1  UNL1        0.1004
     28 C         138.5510  141.8078  162.3344 C.3     1  UNL1        0.0724
     29 C         138.9609  143.1432  162.8809 C.3     1  UNL1        0.0215
     30 C         140.2969  143.3044  163.5435 C.3     1  UNL1        0.0236
     31 C         139.5456  142.6070  164.6385 C.3     1  UNL1        0.0257
     32 C         140.2301  142.2935  165.9359 C.3     1  UNL1        0.0940
     33 N         141.6659  142.6775  166.1383 N.am    1  UNL1       -0.2759
     34 C         142.3504  142.3641  167.4357 C.2     1  UNL1        0.2534
     35 O         143.7862  142.7482  167.6380 O.2     1  UNL1       -0.2697
     36 C         142.4172  143.3750  165.0433 C.3     1  UNL1        0.0940
     37 C         141.7327  143.6884  163.7459 C.3     1  UNL1        0.0257
     38 C         141.5990  141.6667  168.5307 C.ar    1  UNL1        0.1083
     39 C         141.9292  140.2457  168.8795 C.ar    1  UNL1        0.1467
     40 F         143.0107  139.5221  168.1334 F       1  UNL1       -0.2039
     41 C         141.1778  139.5482  169.9746 C.ar    1  UNL1        0.0299
     42 C         140.0963  140.2719  170.7207 C.ar    1  UNL1        0.0046
     43 C         139.7662  141.6929  170.3719 C.ar    1  UNL1        0.0299
     44 C         140.5175  142.3903  169.2769 C.ar    1  UNL1        0.1467
     45 F         140.1874  143.8113  168.9280 F       1  UNL1       -0.2039
     46 C         140.5842  143.9459  162.2183 C.ar    1  UNL1       -0.0204
     47 C         139.7604  145.1104  161.7545 C.ar    1  UNL1       -0.0041
     48 C         140.0477  145.7519  160.4294 C.ar    1  UNL1        0.0020
     49 C         141.1587  145.2288  159.5681 C.ar    1  UNL1        0.0296
     50 C         141.9826  144.0642  160.0319 C.ar    1  UNL1        0.1398
     51 F         143.0936  143.5412  159.1706 F       1  UNL1       -0.2042
     52 C         141.6953  143.4228  161.3571 C.ar    1  UNL1        0.0254
@<TRIPOS>BOND
     1    26    27    3
     2    27    20    1
     3    20    21   ar
     4    21    22   ar
     5    22    23   ar
     6    23    19    1
     7    19     7    1
     8     7     8   am
     9     8     9    2
    10     8    10   am
    11    10    12    1
    12    12    13   ar
    13    13    14   ar
    14    14    15   ar
    15    15    16   ar
    16    16    17    1
    17    16    18   ar
    18    10     1    1
    19     1     2    1
    20     2     3    1
    21     3     4    1
    22     4    28    1
    23    28    29    1
    24    29    30    1
    25    30    46    1
    26    46    47   ar
    27    47    48   ar
    28    48    49   ar
    29    49    50   ar
    30    50    51    1
    31    50    52   ar
    32    30    31    1
    33    31    32    1
    34    32    33    1
    35    33    34   am
    36    34    35    2
    37    34    38    1
    38    38    39   ar
    39    39    40    1
    40    39    41   ar
    41    41    42   ar
    42    42    43   ar
    43    43    44   ar
    44    44    45    1
    45    33    36    1
    46    36    37    1
    47     4     5    1
    48     5     6    1
    49    23    24   ar
    50    24    25   ar
    51    25    20   ar
    52    18    12   ar
    53     6     1    1
    54    37    30    1
    55    52    46   ar
    56    44    38   ar
    57     7    11    1
@<TRIPOS>MOLECULE
*****
 52 57 0 0 0
SMALL
GASTEIGER

@<TRIPOS>ATOM
      1 C         140.3710  143.8638  158.0838 C.3     1  UNL1        0.0840
      2 C         141.3179  142.7009  158.0526 C.3     1  UNL1        0.0376
      3 C         141.9388  142.2050  159.3248 C.3     1  UNL1        0.0738
      4 N         141.6129  142.8720  160.6282 N.3     1  UNL1       -0.2726
      5 C         140.6660  144.0350  160.6594 C.3     1  UNL1        0.0738
      6 C         140.0450  144.5308  159.3872 C.3     1  UNL1        0.0376
      7 N         139.7517  146.0010  154.7976 N.am    1  UNL1       -0.2844
      8 C         140.3727  145.5051  156.0698 C.2     1  UNL1        0.3079
      9 O         141.6163  146.1547  156.6003 O.2     1  UNL1       -0.2522
     10 N         139.7500  144.3596  156.8115 N.am    1  UNL1       -0.2448
     11 H         138.9355  145.5746  154.4494 H       1  UNL1        0.1513
     12 C         138.5064  143.7100  156.2811 C.ar    1  UNL1        0.0574
     13 C         137.8410  144.2554  155.0524 C.ar    1  UNL1        0.0151
     14 C         136.5973  143.6058  154.5219 C.ar    1  UNL1        0.0036
     15 C         136.0191  142.4108  155.2202 C.ar    1  UNL1        0.0297
     16 C         136.6845  141.8654  156.4489 C.ar    1  UNL1        0.1414
     17 F         136.1063  140.6704  157.1472 F       1  UNL1       -0.2041
     18 C         137.9281  142.5150  156.9794 C.ar    1  UNL1        0.0446
     19 C         140.3744  147.1464  154.0558 C.3     1  UNL1        0.1177
     20 C         138.9362  151.3475  154.7860 C.ar    1  UNL1        0.0684
     21 C         138.4702  150.2305  155.6721 C.ar    1  UNL1        0.0100
     22 C         138.9496  148.8302  155.4288 C.ar    1  UNL1       -0.0019
     23 C         139.8950  148.5468  154.2992 C.ar    1  UNL1       -0.0025
     24 C         140.3609  149.6637  153.4131 C.ar    1  UNL1       -0.0019
     25 C         139.8815  151.0640  153.6564 C.ar    1  UNL1        0.0100
     26 N         137.9774  154.1481  155.2727 N.1     1  UNL1       -0.1908
     27 C         138.4568  152.7478  155.0294 C.1     1  UNL1        0.1004
     28 C         142.2339  142.3762  161.9004 C.3     1  UNL1        0.0724
     29 C         142.2318  140.9093  162.2140 C.3     1  UNL1        0.0215
     30 C         141.2187  140.3476  163.1670 C.3     1  UNL1        0.0236
     31 C         142.1190  141.0589  164.1332 C.3     1  UNL1        0.0257
     32 C         141.8158  141.0291  165.6020 C.3     1  UNL1        0.0940
     33 N         140.6123  140.2881  166.1045 N.am    1  UNL1       -0.2759
     34 C         140.3091  140.2584  167.5732 C.2     1  UNL1        0.2534
     35 O         139.1056  139.5174  168.0757 O.2     1  UNL1       -0.2697
     36 C         139.7120  139.5769  165.1383 C.3     1  UNL1        0.0940
     37 C         140.0153  139.6066  163.6695 C.3     1  UNL1        0.0257
     38 C         141.2094  140.9697  168.5394 C.ar    1  UNL1        0.1083
     39 C         140.9977  142.4261  168.8289 C.ar    1  UNL1        0.1467
     40 F         139.8856  143.1714  168.1521 F       1  UNL1       -0.2039
     41 C         141.8980  143.1374  169.7951 C.ar    1  UNL1        0.0299
     42 C         143.0100  142.3921  170.4719 C.ar    1  UNL1        0.0046
     43 C         143.2217  140.9356  170.1824 C.ar    1  UNL1        0.0299
     44 C         142.3214  140.2244  169.2162 C.ar    1  UNL1        0.1467
     45 F         142.5331  138.7679  168.9267 F       1  UNL1       -0.2039
     46 C         140.6703  139.8315  161.8698 C.ar    1  UNL1       -0.0204
     47 C         141.5039  138.9288  161.0093 C.ar    1  UNL1       -0.0041
     48 C         140.9555  138.4126  159.7121 C.ar    1  UNL1        0.0020
     49 C         139.5735  138.7991  159.2753 C.ar    1  UNL1        0.0296
     50 C         138.7399  139.7018  160.1358 C.ar    1  UNL1        0.1398
     51 F         137.3580  140.0882  159.6990 F       1  UNL1       -0.2042
     52 C         139.2884  140.2179  161.4330 C.ar    1  UNL1        0.0254
@<TRIPOS>BOND
     1    26    27    3
     2    27    20    1
     3    20    21   ar
     4    21    22   ar
     5    22    23   ar
     6    23    19    1
     7    19     7    1
     8     7     8   am
     9     8     9    2
    10     8    10   am
    11    10    12    1
    12    12    13   ar
    13    13    14   ar
    14    14    15   ar
    15    15    16   ar
    16    16    17    1
    17    16    18   ar
    18    10     1    1
    19     1     2    1
    20     2     3    1
    21     3     4    1
    22     4    28    1
    23    28    29    1
    24    29    30    1
    25    30    46    1
    26    46    47   ar
    27    47    48   ar
    28    48    49   ar
    29    49    50   ar
    30    50    51    1
    31    50    52   ar
    32    30    31    1
    33    31    32    1
    34    32    33    1
    35    33    34   am
    36    34    35    2
    37    34    38    1
    38    38    39   ar
    39    39    40    1
    40    39    41   ar
    41    41    42   ar
    42    42    43   ar
    43    43    44   ar
    44    44    45    1
    45    33    36    1
    46    36    37    1
    47     4     5    1
    48     5     6    1
    49    23    24   ar
    50    24    25   ar
    51    25    20   ar
    52    18    12   ar
    53     6     1    1
    54    37    30    1
    55    52    46   ar
    56    44    38   ar
    57     7    11    1
@<TRIPOS>MOLECULE
*****
 52 57 0 0 0
SMALL
GASTEIGER

@<TRIPOS>ATOM
      1 C         139.1673  141.0274  158.1290 C.3     1  UNL1        0.0840
      2 C         140.1181  142.1857  158.0662 C.3     1  UNL1        0.0376
      3 C         140.5411  142.8782  159.3278 C.3     1  UNL1        0.0738
      4 N         140.0133  142.4123  160.6522 N.3     1  UNL1       -0.2726
      5 C         139.0623  141.2538  160.7151 C.3     1  UNL1        0.0738
      6 C         138.6393  140.5614  159.4536 C.3     1  UNL1        0.0376
      7 N         137.0170  139.9986  154.9560 N.am    1  UNL1       -0.2844
      8 C         137.4400  140.6910  156.2176 C.2     1  UNL1        0.3079
      9 O         136.5588  141.7394  156.8293 O.2     1  UNL1       -0.2522
     10 N         138.7443  140.3349  156.8675 N.am    1  UNL1       -0.2448
     11 H         137.5954  139.3104  154.5545 H       1  UNL1        0.1513
     12 C         139.6254  139.2865  156.2557 C.ar    1  UNL1        0.0574
     13 C         139.7140  137.9247  156.8782 C.ar    1  UNL1        0.0151
     14 C         140.5952  136.8762  156.2664 C.ar    1  UNL1        0.0036
     15 C         141.3878  137.1896  155.0322 C.ar    1  UNL1        0.0297
     16 C         141.2993  138.5514  154.4097 C.ar    1  UNL1        0.1414
     17 F         142.0919  138.8649  153.1754 F       1  UNL1       -0.2041
     18 C         140.4181  139.5999  155.0214 C.ar    1  UNL1        0.0446
     19 C         135.7128  140.3546  154.3062 C.3     1  UNL1        0.1177
     20 C         131.8591  139.8619  156.5768 C.ar    1  UNL1        0.0684
     21 C         132.0876  141.0886  155.7444 C.ar    1  UNL1        0.0100
     22 C         133.3722  141.2528  154.9876 C.ar    1  UNL1       -0.0019
     23 C         134.4282  140.1903  155.0630 C.ar    1  UNL1       -0.0025
     24 C         134.1997  138.9636  155.8954 C.ar    1  UNL1       -0.0019
     25 C         132.9151  138.7994  156.6523 C.ar    1  UNL1        0.0100
     26 N         129.2899  139.5334  158.0905 N.1     1  UNL1       -0.1908
     27 C         130.5745  139.6976  157.3337 C.1     1  UNL1        0.1004
     28 C         140.4363  143.1047  161.9138 C.3     1  UNL1        0.0724
     29 C         141.8793  143.1019  162.3232 C.3     1  UNL1        0.0215
     30 C         142.4329  141.9523  163.1118 C.3     1  UNL1        0.0236
     31 C         141.7020  142.6849  164.1976 C.3     1  UNL1        0.0257
     32 C         141.7118  142.1521  165.5998 C.3     1  UNL1        0.0940
     33 N         142.4525  140.8868  165.9161 N.am    1  UNL1       -0.2759
     34 C         142.4623  140.3540  167.3183 C.2     1  UNL1        0.2534
     35 O         143.2031  139.0886  167.6346 O.2     1  UNL1       -0.2697
     36 C         143.1835  140.1541  164.8303 C.3     1  UNL1        0.0940
     37 C         143.1737  140.6870  163.4281 C.3     1  UNL1        0.0257
     38 C         141.7314  141.0866  168.4041 C.ar    1  UNL1        0.1083
     39 C         140.3231  140.7036  168.7506 C.ar    1  UNL1        0.1467
     40 F         139.6458  139.5879  168.0113 F       1  UNL1       -0.2039
     41 C         139.5922  141.4362  169.8364 C.ar    1  UNL1        0.0299
     42 C         140.2696  142.5519  170.5757 C.ar    1  UNL1        0.0046
     43 C         141.6778  142.9349  170.2292 C.ar    1  UNL1        0.0299
     44 C         142.4087  142.2022  169.1434 C.ar    1  UNL1        0.1467
     45 F         143.8170  142.5852  168.7968 F       1  UNL1       -0.2039
     46 C         142.9716  141.6190  161.7521 C.ar    1  UNL1       -0.0204
     47 C         143.8391  142.6046  161.0268 C.ar    1  UNL1       -0.0041
     48 C         144.3777  142.2713  159.6671 C.ar    1  UNL1        0.0020
     49 C         144.0489  140.9524  159.0327 C.ar    1  UNL1        0.0296
     50 C         143.1814  139.9668  159.7581 C.ar    1  UNL1        0.1398
     51 F         142.8527  138.6479  159.1237 F       1  UNL1       -0.2042
     52 C         142.6428  140.3001  161.1178 C.ar    1  UNL1        0.0254
@<TRIPOS>BOND
     1    26    27    3
     2    27    20    1
     3    20    21   ar
     4    21    22   ar
     5    22    23   ar
     6    23    19    1
     7    19     7    1
     8     7     8   am
     9     8     9    2
    10     8    10   am
    11    10    12    1
    12    12    13   ar
    13    13    14   ar
    14    14    15   ar
    15    15    16   ar
    16    16    17    1
    17    16    18   ar
    18    10     1    1
    19     1     2    1
    20     2     3    1
    21     3     4    1
    22     4    28    1
    23    28    29    1
    24    29    30    1
    25    30    46    1
    26    46    47   ar
    27    47    48   ar
    28    48    49   ar
    29    49    50   ar
    30    50    51    1
    31    50    52   ar
    32    30    31    1
    33    31    32    1
    34    32    33    1
    35    33    34   am
    36    34    35    2
    37    34    38    1
    38    38    39   ar
    39    39    40    1
    40    39    41   ar
    41    41    42   ar
    42    42    43   ar
    43    43    44   ar
    44    44    45    1
    45    33    36    1
    46    36    37    1
    47     4     5    1
    48     5     6    1
    49    23    24   ar
    50    24    25   ar
    51    25    20   ar
    52    18    12   ar
    53     6     1    1
    54    37    30    1
    55    52    46   ar
    56    44    38   ar
    57     7    11    1
@<TRIPOS>MOLECULE
*****
 52 57 0 0 0
SMALL
GASTEIGER

@<TRIPOS>ATOM
      1 C         139.9427  141.6608  161.8886 C.3     1  UNL1        0.0840
      2 C         138.9775  142.5058  161.1113 C.3     1  UNL1        0.0376
      3 C         138.4277  142.0092  159.8070 C.3     1  UNL1        0.0738
      4 N         138.8431  140.6676  159.2801 N.3     1  UNL1       -0.2726
      5 C         139.8083  139.8226  160.0575 C.3     1  UNL1        0.0738
      6 C         140.3582  140.3192  161.3617 C.3     1  UNL1        0.0376
      7 N         140.5126  142.1092  165.7905 N.am    1  UNL1       -0.2844
      8 C         139.9627  141.6126  164.4862 C.2     1  UNL1        0.3079
      9 O         138.8831  140.5713  164.4752 O.2     1  UNL1       -0.2522
     10 N         140.4925  142.1574  163.1929 N.am    1  UNL1       -0.2448
     11 H         141.2211  142.7926  165.7977 H       1  UNL1        0.1513
     12 C         141.5721  143.1987  163.2039 C.ar    1  UNL1        0.0574
     13 C         141.3257  144.5277  163.8542 C.ar    1  UNL1        0.0151
     14 C         142.4053  145.5690  163.8651 C.ar    1  UNL1        0.0036
     15 C         143.7314  145.2813  163.2258 C.ar    1  UNL1        0.0297
     16 C         143.9778  143.9522  162.5755 C.ar    1  UNL1        0.1414
     17 F         145.3039  143.6645  161.9362 F       1  UNL1       -0.2041
     18 C         142.8982  142.9109  162.5645 C.ar    1  UNL1        0.0446
     19 C         139.9828  141.5645  167.0837 C.3     1  UNL1        0.1177
     20 C         142.4936  138.7474  169.5353 C.ar    1  UNL1        0.0684
     21 C         142.8397  139.0035  168.0985 C.ar    1  UNL1        0.0100
     22 C         142.0028  139.9425  167.2813 C.ar    1  UNL1       -0.0019
     23 C         140.8197  140.6254  167.9009 C.ar    1  UNL1       -0.0025
     24 C         140.4736  140.3693  169.3378 C.ar    1  UNL1       -0.0019
     25 C         141.3105  139.4303  170.1550 C.ar    1  UNL1        0.0100
     26 N         144.1674  136.8694  171.1698 N.1     1  UNL1       -0.1908
     27 C         143.3305  137.8084  170.3526 C.1     1  UNL1        0.1004
     28 C         138.2932  140.1711  157.9758 C.3     1  UNL1        0.0724
     29 C         138.9501  140.5654  156.6863 C.3     1  UNL1        0.0215
     30 C         140.4245  140.3603  156.5022 C.3     1  UNL1        0.0236
     31 C         139.9373  138.9587  156.2831 C.3     1  UNL1        0.0257
     32 C         140.9159  137.8635  155.9782 C.3     1  UNL1        0.0940
     33 N         142.3817  138.1699  155.8924 N.am    1  UNL1       -0.2759
     34 C         143.3603  137.0747  155.5875 C.2     1  UNL1        0.2534
     35 O         144.8261  137.3813  155.5017 O.2     1  UNL1       -0.2697
     36 C         142.8690  139.5715  156.1115 C.3     1  UNL1        0.0940
     37 C         141.8904  140.6667  156.4164 C.3     1  UNL1        0.0257
     38 C         142.8730  135.6731  155.3684 C.ar    1  UNL1        0.1083
     39 C         142.3732  135.2555  154.0172 C.ar    1  UNL1        0.1467
     40 F         142.3606  136.2395  152.8851 F       1  UNL1       -0.2039
     41 C         141.8859  133.8539  153.7981 C.ar    1  UNL1        0.0299
     42 C         141.8985  132.8699  154.9302 C.ar    1  UNL1        0.0046
     43 C         142.3983  133.2875  156.2814 C.ar    1  UNL1        0.0299
     44 C         142.8856  134.6891  156.5005 C.ar    1  UNL1        0.1467
     45 F         143.3855  135.1069  157.8516 F       1  UNL1       -0.2039
     46 C         140.3997  141.8331  156.7852 C.ar    1  UNL1       -0.0204
     47 C         139.4607  142.7263  156.0298 C.ar    1  UNL1       -0.0041
     48 C         139.4358  144.1991  156.3129 C.ar    1  UNL1        0.0020
     49 C         140.3499  144.7788  157.3513 C.ar    1  UNL1        0.0296
     50 C         141.2889  143.8856  158.1067 C.ar    1  UNL1        0.1398
     51 F         142.2030  144.4654  159.1451 F       1  UNL1       -0.2042
     52 C         141.3138  142.4128  157.8236 C.ar    1  UNL1        0.0254
@<TRIPOS>BOND
     1    26    27    3
     2    27    20    1
     3    20    21   ar
     4    21    22   ar
     5    22    23   ar
     6    23    19    1
     7    19     7    1
     8     7     8   am
     9     8     9    2
    10     8    10   am
    11    10    12    1
    12    12    13   ar
    13    13    14   ar
    14    14    15   ar
    15    15    16   ar
    16    16    17    1
    17    16    18   ar
    18    10     1    1
    19     1     2    1
    20     2     3    1
    21     3     4    1
    22     4    28    1
    23    28    29    1
    24    29    30    1
    25    30    46    1
    26    46    47   ar
    27    47    48   ar
    28    48    49   ar
    29    49    50   ar
    30    50    51    1
    31    50    52   ar
    32    30    31    1
    33    31    32    1
    34    32    33    1
    35    33    34   am
    36    34    35    2
    37    34    38    1
    38    38    39   ar
    39    39    40    1
    40    39    41   ar
    41    41    42   ar
    42    42    43   ar
    43    43    44   ar
    44    44    45    1
    45    33    36    1
    46    36    37    1
    47     4     5    1
    48     5     6    1
    49    23    24   ar
    50    24    25   ar
    51    25    20   ar
    52    18    12   ar
    53     6     1    1
    54    37    30    1
    55    52    46   ar
    56    44    38   ar
    57     7    11    1
@<TRIPOS>MOLECULE
*****
 52 57 0 0 0
SMALL
GASTEIGER

@<TRIPOS>ATOM
      1 C         138.8726  140.9372  158.1029 C.3     1  UNL1        0.0840
      2 C         139.4193  139.5463  158.2317 C.3     1  UNL1        0.0376
      3 C         139.6215  138.9427  159.5899 C.3     1  UNL1        0.0738
      4 N         139.2770  139.7299  160.8194 N.3     1  UNL1       -0.2726
      5 C         138.7303  141.1209  160.6906 C.3     1  UNL1        0.0738
      6 C         138.5281  141.7245  159.3324 C.3     1  UNL1        0.0376
      7 N         139.4092  143.2007  154.8875 N.am    1  UNL1       -0.2844
      8 C         139.6114  142.5970  156.2457 C.2     1  UNL1        0.3079
      9 O         140.7546  143.0496  157.1050 O.2     1  UNL1       -0.2522
     10 N         138.6704  141.5408  156.7447 N.am    1  UNL1       -0.2448
     11 H         138.6588  142.9036  154.3236 H       1  UNL1        0.1513
     12 C         137.5272  141.0882  155.8855 C.ar    1  UNL1        0.0574
     13 C         137.7805  140.1857  154.7145 C.ar    1  UNL1        0.0151
     14 C         136.6373  139.7331  153.8553 C.ar    1  UNL1        0.0036
     15 C         135.2408  140.1831  154.1671 C.ar    1  UNL1        0.0297
     16 C         134.9874  141.0856  155.3381 C.ar    1  UNL1        0.1414
     17 F         133.5909  141.5356  155.6498 F       1  UNL1       -0.2041
     18 C         136.1306  141.5382  156.1973 C.ar    1  UNL1        0.0446
     19 C         140.3501  144.2568  154.3885 C.3     1  UNL1        0.1177
     20 C         139.3537  148.6082  154.9564 C.ar    1  UNL1        0.0684
     21 C         138.8589  147.5908  155.9412 C.ar    1  UNL1        0.0100
     22 C         139.1910  146.1403  155.7519 C.ar    1  UNL1       -0.0019
     23 C         140.0180  145.7073  154.5778 C.ar    1  UNL1       -0.0025
     24 C         140.5128  146.7247  153.5930 C.ar    1  UNL1       -0.0019
     25 C         140.1807  148.1752  153.7823 C.ar    1  UNL1        0.0100
     26 N         138.6895  151.5092  155.3349 N.1     1  UNL1       -0.1908
     27 C         139.0216  150.0587  155.1457 C.1     1  UNL1        0.1004
     28 C         139.4793  139.1263  162.1776 C.3     1  UNL1        0.0724
     29 C         140.8532  138.7185  162.6200 C.3     1  UNL1        0.0215
     30 C         141.7587  139.7198  163.2739 C.3     1  UNL1        0.0236
     31 C         140.8941  139.3486  164.4421 C.3     1  UNL1        0.0257
     32 C         141.1260  139.9869  165.7796 C.3     1  UNL1        0.0940
     33 N         142.2225  140.9963  165.9489 N.am    1  UNL1       -0.2759
     34 C         142.4544  141.6346  167.2864 C.2     1  UNL1        0.2534
     35 O         143.5509  142.6440  167.4556 O.2     1  UNL1       -0.2697
     36 C         143.0871  141.3675  164.7807 C.3     1  UNL1        0.0940
     37 C         142.8552  140.7292  163.4432 C.3     1  UNL1        0.0257
     38 C         141.5898  141.2634  168.4545 C.ar    1  UNL1        0.1083
     39 C         140.5034  142.1926  168.9088 C.ar    1  UNL1        0.1467
     40 F         140.2816  143.4930  168.1948 F       1  UNL1       -0.2039
     41 C         139.6388  141.8214  170.0769 C.ar    1  UNL1        0.0299
     42 C         139.8606  140.5209  170.7909 C.ar    1  UNL1        0.0046
     43 C         140.9469  139.5917  170.3367 C.ar    1  UNL1        0.0299
     44 C         141.8116  139.9629  169.1685 C.ar    1  UNL1        0.1467
     45 F         142.8980  139.0338  168.7142 F       1  UNL1       -0.2039
     46 C         142.3088  139.7432  161.8786 C.ar    1  UNL1       -0.0204
     47 C         142.7669  138.4697  161.2316 C.ar    1  UNL1       -0.0041
     48 C         143.3170  138.4931  159.8363 C.ar    1  UNL1        0.0020
     49 C         143.4091  139.7899  159.0881 C.ar    1  UNL1        0.0296
     50 C         142.9510  141.0633  159.7351 C.ar    1  UNL1        0.1398
     51 F         143.0432  142.3601  158.9868 F       1  UNL1       -0.2042
     52 C         142.4009  141.0399  161.1304 C.ar    1  UNL1        0.0254
@<TRIPOS>BOND
     1    26    27    3
     2    27    20    1
     3    20    21   ar
     4    21    22   ar
     5    22    23   ar
     6    23    19    1
     7    19     7    1
     8     7     8   am
     9     8     9    2
    10     8    10   am
    11    10    12    1
    12    12    13   ar
    13    13    14   ar
    14    14    15   ar
    15    15    16   ar
    16    16    17    1
    17    16    18   ar
    18    10     1    1
    19     1     2    1
    20     2     3    1
    21     3     4    1
    22     4    28    1
    23    28    29    1
    24    29    30    1
    25    30    46    1
    26    46    47   ar
    27    47    48   ar
    28    48    49   ar
    29    49    50   ar
    30    50    51    1
    31    50    52   ar
    32    30    31    1
    33    31    32    1
    34    32    33    1
    35    33    34   am
    36    34    35    2
    37    34    38    1
    38    38    39   ar
    39    39    40    1
    40    39    41   ar
    41    41    42   ar
    42    42    43   ar
    43    43    44   ar
    44    44    45    1
    45    33    36    1
    46    36    37    1
    47     4     5    1
    48     5     6    1
    49    23    24   ar
    50    24    25   ar
    51    25    20   ar
    52    18    12   ar
    53     6     1    1
    54    37    30    1
    55    52    46   ar
    56    44    38   ar
    57     7    11    1
@<TRIPOS>MOLECULE
*****
 52 57 0 0 0
SMALL
GASTEIGER

@<TRIPOS>ATOM
      1 C         142.5466  142.9581  160.8252 C.3     1  UNL1        0.0840
      2 C         141.4936  144.0252  160.8729 C.3     1  UNL1        0.0376
      3 C         141.3049  144.9456  159.7036 C.3     1  UNL1        0.0738
      4 N         142.1692  144.7989  158.4866 N.3     1  UNL1       -0.2726
      5 C         143.2223  143.7317  158.4387 C.3     1  UNL1        0.0738
      6 C         143.4110  142.8113  159.6080 C.3     1  UNL1        0.0376
      7 N         143.4017  141.6618  164.4773 N.am    1  UNL1       -0.2844
      8 C         143.2130  142.5822  163.3080 C.2     1  UNL1        0.3079
      9 O         143.5021  144.0469  163.4523 O.2     1  UNL1       -0.2522
     10 N         142.7353  142.0377  161.9945 N.am    1  UNL1       -0.2448
     11 H         143.2120  140.7004  164.3827 H       1  UNL1        0.1513
     12 C         142.4463  140.5729  161.8502 C.ar    1  UNL1        0.0574
     13 C         141.0342  140.0748  161.9386 C.ar    1  UNL1        0.0151
     14 C         140.7452  138.6099  161.7943 C.ar    1  UNL1        0.0036
     15 C         141.8683  137.6433  161.5618 C.ar    1  UNL1        0.0297
     16 C         143.2804  138.1414  161.4734 C.ar    1  UNL1        0.1414
     17 F         144.4035  137.1747  161.2409 F       1  UNL1       -0.2041
     18 C         143.5694  139.6062  161.6177 C.ar    1  UNL1        0.0446
     19 C         143.8794  142.2062  165.7909 C.3     1  UNL1        0.1177
     20 C         140.9596  142.8563  169.1527 C.ar    1  UNL1        0.0684
     21 C         142.4158  142.6567  169.4521 C.ar    1  UNL1        0.0100
     22 C         143.3891  142.4400  168.3315 C.ar    1  UNL1       -0.0019
     23 C         142.9062  142.4229  166.9115 C.ar    1  UNL1       -0.0025
     24 C         141.4500  142.6225  166.6121 C.ar    1  UNL1       -0.0019
     25 C         140.4767  142.8392  167.7327 C.ar    1  UNL1        0.0100
     26 N         139.0131  143.2898  171.3939 N.1     1  UNL1       -0.1908
     27 C         139.9864  143.0730  170.2733 C.1     1  UNL1        0.1004
     28 C         141.9805  145.7193  157.3173 C.3     1  UNL1        0.0724
     29 C         140.6024  145.9894  156.7901 C.3     1  UNL1        0.0215
     30 C         140.1253  145.2964  155.5483 C.3     1  UNL1        0.0236
     31 C         140.5097  144.1077  156.3786 C.3     1  UNL1        0.0257
     32 C         140.3409  142.7225  155.8284 C.3     1  UNL1        0.0940
     33 N         139.7879  142.5259  154.4481 N.am    1  UNL1       -0.2759
     34 C         139.6191  141.1406  153.8979 C.2     1  UNL1        0.2534
     35 O         139.0661  140.9441  152.5175 O.2     1  UNL1       -0.2697
     36 C         139.4035  143.7145  153.6178 C.3     1  UNL1        0.0940
     37 C         139.5722  145.0998  154.1679 C.3     1  UNL1        0.0257
     38 C         140.0035  139.9520  154.7282 C.ar    1  UNL1        0.1083
     39 C         141.3160  139.2652  154.4923 C.ar    1  UNL1        0.1467
     40 F         142.2441  139.7670  153.4261 F       1  UNL1       -0.2039
     41 C         141.7003  138.0765  155.3226 C.ar    1  UNL1        0.0299
     42 C         140.7721  137.5747  156.3888 C.ar    1  UNL1        0.0046
     43 C         139.4597  138.2615  156.6246 C.ar    1  UNL1        0.0299
     44 C         139.0753  139.4501  155.7944 C.ar    1  UNL1        0.1467
     45 F         137.7628  140.1370  156.0302 F       1  UNL1       -0.2039
     46 C         139.9067  146.7257  155.1493 C.ar    1  UNL1       -0.0204
     47 C         140.5660  147.2696  153.9166 C.ar    1  UNL1       -0.0041
     48 C         140.3474  148.6989  153.5177 C.ar    1  UNL1        0.0020
     49 C         139.4695  149.5844  154.3514 C.ar    1  UNL1        0.0296
     50 C         138.8101  149.0406  155.5841 C.ar    1  UNL1        0.1398
     51 F         137.9322  149.9261  156.4178 F       1  UNL1       -0.2042
     52 C         139.0288  147.6112  155.9831 C.ar    1  UNL1        0.0254
@<TRIPOS>BOND
     1    26    27    3
     2    27    20    1
     3    20    21   ar
     4    21    22   ar
     5    22    23   ar
     6    23    19    1
     7    19     7    1
     8     7     8   am
     9     8     9    2
    10     8    10   am
    11    10    12    1
    12    12    13   ar
    13    13    14   ar
    14    14    15   ar
    15    15    16   ar
    16    16    17    1
    17    16    18   ar
    18    10     1    1
    19     1     2    1
    20     2     3    1
    21     3     4    1
    22     4    28    1
    23    28    29    1
    24    29    30    1
    25    30    46    1
    26    46    47   ar
    27    47    48   ar
    28    48    49   ar
    29    49    50   ar
    30    50    51    1
    31    50    52   ar
    32    30    31    1
    33    31    32    1
    34    32    33    1
    35    33    34   am
    36    34    35    2
    37    34    38    1
    38    38    39   ar
    39    39    40    1
    40    39    41   ar
    41    41    42   ar
    42    42    43   ar
    43    43    44   ar
    44    44    45    1
    45    33    36    1
    46    36    37    1
    47     4     5    1
    48     5     6    1
    49    23    24   ar
    50    24    25   ar
    51    25    20   ar
    52    18    12   ar
    53     6     1    1
    54    37    30    1
    55    52    46   ar
    56    44    38   ar
    57     7    11    1
