@<TRIPOS>MOLECULE
*****
 41 45 0 0 0
SMALL
GASTEIGER

@<TRIPOS>ATOM
      1 C         142.1644  140.1832  158.3875 C.ar    1  UNL1       -0.0020
      2 C         142.3711  139.4015  157.1240 C.ar    1  UNL1        0.0179
      3 C         142.7930  137.9637  157.1922 C.ar    1  UNL1        0.1014
      4 N         143.0083  137.3075  158.5239 N.ar    1  UNL1       -0.2149
      5 C         142.8016  138.0892  159.7873 C.ar    1  UNL1        0.1933
      6 C         142.3796  139.5271  159.7190 C.ar    1  UNL1        0.0487
      7 C         141.5405  142.2810  156.9874 C.3     1  UNL1        0.0222
      8 C         141.7424  141.6210  158.3192 C.3     1  UNL1        0.0804
      9 N         141.5225  142.3989  159.5828 N.3     1  UNL1       -0.2674
     10 C         140.1760  142.3907  160.2437 C.3     1  UNL1        0.0941
     11 C         139.9560  143.1686  161.5073 C.3     1  UNL1        0.1107
     12 N         141.0825  143.9546  162.1099 N.am    1  UNL1       -0.2764
     13 C         140.8625  144.7324  163.3734 C.2     1  UNL1        0.2344
     14 O         141.9890  145.5184  163.9760 O.2     1  UNL1       -0.2746
     15 C         142.4290  143.9627  161.4489 C.3     1  UNL1        0.1107
     16 C         142.6490  143.1849  160.1854 C.3     1  UNL1        0.0941
     17 C         139.5160  144.7242  164.0343 C.3     1  UNL1        0.1882
     18 C         139.0397  143.4955  164.7509 C.3     1  UNL1        0.4063
     19 F         138.5634  142.2669  165.4675 F       1  UNL1       -0.1695
     20 F         137.6291  143.8068  164.3471 F       1  UNL1       -0.1695
     21 F         140.4503  143.1843  165.1548 F       1  UNL1       -0.1695
     22 N         143.0168  137.4331  161.1189 N.pl3   1  UNL1       -0.1848
     23 H         143.7386  136.7732  161.2315 H       1  UNL1        0.2530
     24 C         142.1322  137.7824  162.2788 C.cat   1  UNL1        0.4252
     25 N         140.6916  137.3956  162.4369 N.2     1  UNL1       -0.0676
     26 C         140.2019  137.9540  163.7401 C.2     1  UNL1        0.1887
     27 C         138.8669  137.8905  164.4209 C.2     1  UNL1        0.0396
     28 C         138.6698  138.5590  165.7491 C.2     1  UNL1        0.0008
     29 C         139.8078  139.2910  166.3965 C.2     1  UNL1        0.0033
     30 C         141.1428  139.3545  165.7157 C.3     1  UNL1        0.0950
     31 C         141.3399  138.6860  164.3875 C.2     1  UNL1        0.1745
     32 N         142.5329  138.5800  163.4844 N.2     1  UNL1       -0.0714
     33 C         139.6107  139.9596  167.7248 C.ar    1  UNL1        0.0823
     34 C         140.4479  141.1467  168.0985 C.ar    1  UNL1        0.0532
     35 C         140.2508  141.8153  169.4268 C.ar    1  UNL1        0.1351
     36 N         139.2164  141.2966  170.3813 N.ar    1  UNL1       -0.2090
     37 C         138.3792  140.1094  170.0075 C.ar    1  UNL1        0.2000
     38 N         138.5763  139.4409  168.6793 N.ar    1  UNL1       -0.2242
     39 N         141.0880  143.0024  169.8005 N.pl3   1  UNL1       -0.2897
     40 C         142.5729  142.8548  169.9531 C.3     1  UNL1        0.1136
     41 C         140.4403  144.3372  170.0217 C.3     1  UNL1        0.1136
@<TRIPOS>BOND
     1     8     7    1
     2     8     1    1
     3     1     2   ar
     4     2     3   ar
     5     3     4   ar
     6     4     5   ar
     7     5    22    1
     8    22    24    1
     9    24    25    2
    10    25    26    1
    11    26    27    2
    12    27    28    1
    13    28    29    2
    14    29    33    1
    15    33    34   ar
    16    34    35   ar
    17    35    39    1
    18    39    40    1
    19    39    41    1
    20    35    36   ar
    21    36    37   ar
    22    37    38   ar
    23    29    30    1
    24    30    31    1
    25    31    32    2
    26     5     6   ar
    27     8     9    1
    28     9    10    1
    29    10    11    1
    30    11    12    1
    31    12    13   am
    32    13    14    2
    33    13    17    1
    34    17    18    1
    35    18    19    1
    36    18    20    1
    37    18    21    1
    38    12    15    1
    39    15    16    1
    40     6     1   ar
    41    16     9    1
    42    32    24    1
    43    31    26    1
    44    38    33   ar
    45    22    23    1
@<TRIPOS>MOLECULE
*****
 41 45 0 0 0
SMALL
GASTEIGER

@<TRIPOS>ATOM
      1 C         139.3515  142.5314  157.2501 C.ar    1  UNL1       -0.0020
      2 C         139.8948  142.9762  155.9246 C.ar    1  UNL1        0.0179
      3 C         140.5113  144.3365  155.7850 C.ar    1  UNL1        0.1014
      4 N         140.5846  145.2520  156.9710 N.ar    1  UNL1       -0.2149
      5 C         140.0413  144.8072  158.2965 C.ar    1  UNL1        0.1933
      6 C         139.4248  143.4469  158.4360 C.ar    1  UNL1        0.0487
      7 C         137.8422  140.6378  156.3086 C.3     1  UNL1        0.0222
      8 C         138.7350  141.1711  157.3896 C.3     1  UNL1        0.0804
      9 N         139.0113  140.3440  158.6101 N.3     1  UNL1       -0.2674
     10 C         137.9933  140.2653  159.7089 C.3     1  UNL1        0.0941
     11 C         138.2695  139.4382  160.9295 C.3     1  UNL1        0.1107
     12 N         139.5638  138.6899  161.0511 N.am    1  UNL1       -0.2764
     13 C         139.8401  137.8629  162.2716 C.2     1  UNL1        0.2344
     14 O         141.1344  137.1145  162.3933 O.2     1  UNL1       -0.2746
     15 C         140.5818  138.7686  159.9522 C.3     1  UNL1        0.1107
     16 C         140.3056  139.5957  158.7318 C.3     1  UNL1        0.0941
     17 C         138.8221  137.7842  163.3704 C.3     1  UNL1        0.1882
     18 C         139.1543  138.3007  164.7390 C.3     1  UNL1        0.4063
     19 F         139.4864  138.8173  166.1075 F       1  UNL1       -0.1695
     20 F         138.6559  137.0213  165.3429 F       1  UNL1       -0.1695
     21 F         139.6526  139.5801  164.1351 F       1  UNL1       -0.1695
     22 N         140.1145  145.7227  159.4824 N.pl3   1  UNL1       -0.1848
     23 H         140.1863  146.6956  159.3496 H       1  UNL1        0.2530
     24 C         140.0785  145.1559  160.8708 C.cat   1  UNL1        0.4252
     25 N         139.1871  145.6134  161.9870 N.2     1  UNL1       -0.0676
     26 C         139.4852  144.7724  163.1928 C.2     1  UNL1        0.1887
     27 C         138.9162  144.7702  164.5806 C.2     1  UNL1        0.0396
     28 C         139.4228  143.7908  165.5974 C.2     1  UNL1        0.0008
     29 C         140.4985  142.8134  165.2263 C.2     1  UNL1        0.0033
     30 C         141.0676  142.8156  163.8385 C.3     1  UNL1        0.0950
     31 C         140.5609  143.7951  162.8217 C.2     1  UNL1        0.1745
     32 N         140.9276  144.0321  161.3866 N.2     1  UNL1       -0.0714
     33 C         141.0052  141.8339  166.2432 C.ar    1  UNL1        0.0823
     34 C         140.3610  141.7561  167.5955 C.ar    1  UNL1        0.0532
     35 C         140.8677  140.7766  168.6124 C.ar    1  UNL1        0.1351
     36 N         142.0185  139.8749  168.2768 N.ar    1  UNL1       -0.2090
     37 C         142.6627  139.9528  166.9243 C.ar    1  UNL1        0.2000
     38 N         142.1560  140.9323  165.9076 N.ar    1  UNL1       -0.2242
     39 N         140.2235  140.6987  169.9647 N.pl3   1  UNL1       -0.2897
     40 C         141.0401  140.9408  171.1995 C.3     1  UNL1        0.1136
     41 C         138.7628  140.3788  170.0824 C.3     1  UNL1        0.1136
@<TRIPOS>BOND
     1     8     7    1
     2     8     1    1
     3     1     2   ar
     4     2     3   ar
     5     3     4   ar
     6     4     5   ar
     7     5    22    1
     8    22    24    1
     9    24    25    2
    10    25    26    1
    11    26    27    2
    12    27    28    1
    13    28    29    2
    14    29    33    1
    15    33    34   ar
    16    34    35   ar
    17    35    39    1
    18    39    40    1
    19    39    41    1
    20    35    36   ar
    21    36    37   ar
    22    37    38   ar
    23    29    30    1
    24    30    31    1
    25    31    32    2
    26     5     6   ar
    27     8     9    1
    28     9    10    1
    29    10    11    1
    30    11    12    1
    31    12    13   am
    32    13    14    2
    33    13    17    1
    34    17    18    1
    35    18    19    1
    36    18    20    1
    37    18    21    1
    38    12    15    1
    39    15    16    1
    40     6     1   ar
    41    16     9    1
    42    32    24    1
    43    31    26    1
    44    38    33   ar
    45    22    23    1
@<TRIPOS>MOLECULE
*****
 41 45 0 0 0
SMALL
GASTEIGER

@<TRIPOS>ATOM
      1 C         138.9896  142.8151  158.0707 C.ar    1  UNL1       -0.0020
      2 C         139.0316  143.4737  156.7237 C.ar    1  UNL1        0.0179
      3 C         139.6860  144.8139  156.5642 C.ar    1  UNL1        0.1014
      4 N         140.2985  145.4956  157.7518 N.ar    1  UNL1       -0.2149
      5 C         140.2565  144.8370  159.0988 C.ar    1  UNL1        0.1933
      6 C         139.6021  143.4967  159.2582 C.ar    1  UNL1        0.0487
      7 C         137.3079  141.0188  157.2367 C.3     1  UNL1        0.0222
      8 C         138.3352  141.4748  158.2301 C.3     1  UNL1        0.0804
      9 N         138.7079  140.5905  159.3829 N.3     1  UNL1       -0.2674
     10 C         137.8919  140.6148  160.6413 C.3     1  UNL1        0.0941
     11 C         138.2646  139.7305  161.7942 C.3     1  UNL1        0.1107
     12 N         139.4535  138.8219  161.6887 N.am    1  UNL1       -0.2764
     13 C         139.8263  137.9376  162.8415 C.2     1  UNL1        0.2344
     14 O         141.0151  137.0290  162.7360 O.2     1  UNL1       -0.2746
     15 C         140.2695  138.7976  160.4303 C.3     1  UNL1        0.1107
     16 C         139.8968  139.6819  159.2774 C.3     1  UNL1        0.0941
     17 C         139.0102  137.9619  164.0998 C.3     1  UNL1        0.1882
     18 C         139.5015  138.7192  165.2979 C.3     1  UNL1        0.4063
     19 F         139.9928  139.4764  166.4958 F       1  UNL1       -0.1695
     20 F         138.4531  138.0602  166.1444 F       1  UNL1       -0.1695
     21 F         140.5499  139.3782  164.4514 F       1  UNL1       -0.1695
     22 N         140.8689  145.5186  160.2863 N.pl3   1  UNL1       -0.1848
     23 H         140.8337  146.4994  160.3633 H       1  UNL1        0.2530
     24 C         141.5350  144.7057  161.3567 C.cat   1  UNL1        0.4252
     25 N         142.9993  144.3917  161.4427 N.2     1  UNL1       -0.0676
     26 C         143.2230  143.5561  162.6681 C.2     1  UNL1        0.1887
     27 C         144.4629  142.9535  163.2593 C.2     1  UNL1        0.0396
     28 C         144.3767  142.1483  164.5220 C.2     1  UNL1        0.0008
     29 C         143.0507  141.9459  165.1934 C.2     1  UNL1        0.0033
     30 C         141.8109  142.5486  164.6022 C.3     1  UNL1        0.0950
     31 C         141.8971  143.3537  163.3395 C.2     1  UNL1        0.1745
     32 N         140.8539  144.0642  162.5290 N.2     1  UNL1       -0.0714
     33 C         142.9646  141.1407  166.4561 C.ar    1  UNL1        0.0823
     34 C         142.7096  141.8252  167.7662 C.ar    1  UNL1        0.0532
     35 C         142.6235  141.0200  169.0289 C.ar    1  UNL1        0.1351
     36 N         142.7924  139.5303  168.9814 N.ar    1  UNL1       -0.2090
     37 C         143.0475  138.8458  167.6712 C.ar    1  UNL1        0.2000
     38 N         143.1336  139.6510  166.4086 N.ar    1  UNL1       -0.2242
     39 N         142.3684  141.7046  170.3389 N.pl3   1  UNL1       -0.2897
     40 C         143.0237  143.0204  170.6377 C.3     1  UNL1        0.1136
     41 C         141.4581  141.0733  171.3502 C.3     1  UNL1        0.1136
@<TRIPOS>BOND
     1     8     7    1
     2     8     1    1
     3     1     2   ar
     4     2     3   ar
     5     3     4   ar
     6     4     5   ar
     7     5    22    1
     8    22    24    1
     9    24    25    2
    10    25    26    1
    11    26    27    2
    12    27    28    1
    13    28    29    2
    14    29    33    1
    15    33    34   ar
    16    34    35   ar
    17    35    39    1
    18    39    40    1
    19    39    41    1
    20    35    36   ar
    21    36    37   ar
    22    37    38   ar
    23    29    30    1
    24    30    31    1
    25    31    32    2
    26     5     6   ar
    27     8     9    1
    28     9    10    1
    29    10    11    1
    30    11    12    1
    31    12    13   am
    32    13    14    2
    33    13    17    1
    34    17    18    1
    35    18    19    1
    36    18    20    1
    37    18    21    1
    38    12    15    1
    39    15    16    1
    40     6     1   ar
    41    16     9    1
    42    32    24    1
    43    31    26    1
    44    38    33   ar
    45    22    23    1
@<TRIPOS>MOLECULE
*****
 41 45 0 0 0
SMALL
GASTEIGER

@<TRIPOS>ATOM
      1 C         141.2864  141.2643  168.7641 C.ar    1  UNL1       -0.0020
      2 C         141.1394  141.2241  170.2564 C.ar    1  UNL1        0.0179
      3 C         140.0103  140.4571  170.8783 C.ar    1  UNL1        0.1014
      4 N         139.0282  139.7303  170.0081 N.ar    1  UNL1       -0.2149
      5 C         139.1753  139.7705  168.5158 C.ar    1  UNL1        0.1933
      6 C         140.3044  140.5375  167.8939 C.ar    1  UNL1        0.0487
      7 C         143.6627  142.3014  168.9307 C.3     1  UNL1        0.0222
      8 C         142.4156  142.0313  168.1422 C.3     1  UNL1        0.0804
      9 N         142.2976  142.5282  166.7318 N.3     1  UNL1       -0.2674
     10 C         140.9440  142.7745  166.1343 C.3     1  UNL1        0.0941
     11 C         140.8259  143.2714  164.7239 C.3     1  UNL1        0.1107
     12 N         142.0614  143.5220  163.9111 N.am    1  UNL1       -0.2764
     13 C         141.9434  144.0189  162.5007 C.2     1  UNL1        0.2344
     14 O         143.1790  144.2696  161.6880 O.2     1  UNL1       -0.2746
     15 C         143.4151  143.2758  164.5087 C.3     1  UNL1        0.1107
     16 C         143.5331  142.7789  165.9191 C.3     1  UNL1        0.0941
     17 C         140.5898  144.2652  161.9032 C.3     1  UNL1        0.1882
     18 C         140.0701  145.6665  161.7752 C.3     1  UNL1        0.4063
     19 F         139.5503  147.0677  161.6474 F       1  UNL1       -0.1695
     20 F         140.7724  145.8067  160.4573 F       1  UNL1       -0.1695
     21 F         139.3678  145.5263  163.0932 F       1  UNL1       -0.1695
     22 N         138.1933  139.0437  167.6456 N.pl3   1  UNL1       -0.1848
     23 H         137.4385  138.5602  168.0527 H       1  UNL1        0.2530
     24 C         138.3613  139.0536  166.1550 C.cat   1  UNL1        0.4252
     25 N         138.8028  137.8957  165.3098 N.2     1  UNL1       -0.0676
     26 C         138.8317  138.3496  163.8804 C.2     1  UNL1        0.1887
     27 C         139.1890  137.6389  162.6087 C.2     1  UNL1        0.0396
     28 C         139.1226  138.3667  161.2988 C.2     1  UNL1        0.0008
     29 C         138.6990  139.8051  161.2606 C.2     1  UNL1        0.0033
     30 C         138.3416  140.5157  162.5323 C.3     1  UNL1        0.0950
     31 C         138.4080  139.7880  163.8422 C.2     1  UNL1        0.1745
     32 N         138.1173  140.2231  165.2480 N.2     1  UNL1       -0.0714
     33 C         138.6326  140.5328  159.9506 C.ar    1  UNL1        0.0823
     34 C         139.5963  141.6452  159.6610 C.ar    1  UNL1        0.0532
     35 C         139.5300  142.3729  158.3509 C.ar    1  UNL1        0.1351
     36 N         138.5000  141.9883  157.3306 N.ar    1  UNL1       -0.2090
     37 C         137.5362  140.8758  157.6203 C.ar    1  UNL1        0.2000
     38 N         137.6026  140.1482  158.9303 N.ar    1  UNL1       -0.2242
     39 N         140.4937  143.4853  158.0613 N.pl3   1  UNL1       -0.2897
     40 C         141.9271  143.3656  158.4867 C.3     1  UNL1        0.1136
     41 C         140.0239  144.7174  157.3463 C.3     1  UNL1        0.1136
@<TRIPOS>BOND
     1     8     7    1
     2     8     1    1
     3     1     2   ar
     4     2     3   ar
     5     3     4   ar
     6     4     5   ar
     7     5    22    1
     8    22    24    1
     9    24    25    2
    10    25    26    1
    11    26    27    2
    12    27    28    1
    13    28    29    2
    14    29    33    1
    15    33    34   ar
    16    34    35   ar
    17    35    39    1
    18    39    40    1
    19    39    41    1
    20    35    36   ar
    21    36    37   ar
    22    37    38   ar
    23    29    30    1
    24    30    31    1
    25    31    32    2
    26     5     6   ar
    27     8     9    1
    28     9    10    1
    29    10    11    1
    30    11    12    1
    31    12    13   am
    32    13    14    2
    33    13    17    1
    34    17    18    1
    35    18    19    1
    36    18    20    1
    37    18    21    1
    38    12    15    1
    39    15    16    1
    40     6     1   ar
    41    16     9    1
    42    32    24    1
    43    31    26    1
    44    38    33   ar
    45    22    23    1
@<TRIPOS>MOLECULE
*****
 41 45 0 0 0
SMALL
GASTEIGER

@<TRIPOS>ATOM
      1 C         141.2139  139.3522  157.8034 C.ar    1  UNL1       -0.0020
      2 C         141.7780  138.7003  156.5758 C.ar    1  UNL1        0.0179
      3 C         142.7640  137.5778  156.7086 C.ar    1  UNL1        0.1014
      4 N         143.1860  137.1071  158.0689 N.ar    1  UNL1       -0.2149
      5 C         142.6220  137.7590  159.2965 C.ar    1  UNL1        0.1933
      6 C         141.6359  138.8816  159.1637 C.ar    1  UNL1        0.0487
      7 C         139.8853  141.0156  156.3140 C.3     1  UNL1        0.0222
      8 C         140.2279  140.4748  157.6706 C.3     1  UNL1        0.0804
      9 N         139.5845  141.0566  158.8943 N.3     1  UNL1       -0.2674
     10 C         139.9010  142.4621  159.3118 C.3     1  UNL1        0.0941
     11 C         139.2576  143.0440  160.5356 C.3     1  UNL1        0.1107
     12 N         138.2976  142.2202  161.3418 N.am    1  UNL1       -0.2764
     13 C         137.6542  142.8020  162.5655 C.2     1  UNL1        0.2344
     14 O         136.6943  141.9783  163.3717 O.2     1  UNL1       -0.2746
     15 C         137.9811  140.8147  160.9242 C.3     1  UNL1        0.1107
     16 C         138.6245  140.2329  159.7005 C.3     1  UNL1        0.0941
     17 C         137.9707  144.2075  162.9830 C.3     1  UNL1        0.1882
     18 C         138.6884  144.4624  164.2753 C.3     1  UNL1        0.4063
     19 F         139.4060  144.7174  165.5676 F       1  UNL1       -0.1695
     20 F         139.9969  144.4936  163.5426 F       1  UNL1       -0.1695
     21 F         137.3800  144.4313  165.0080 F       1  UNL1       -0.1695
     22 N         143.0440  137.2884  160.6568 N.pl3   1  UNL1       -0.1848
     23 H         143.8557  136.7408  160.7582 H       1  UNL1        0.2530
     24 C         142.2291  137.6523  161.8624 C.cat   1  UNL1        0.4252
     25 N         140.7969  137.2777  162.1045 N.2     1  UNL1       -0.0676
     26 C         140.3860  137.8485  163.4294 C.2     1  UNL1        0.1887
     27 C         139.0913  137.7999  164.1851 C.2     1  UNL1        0.0396
     28 C         138.9747  138.4786  165.5176 C.2     1  UNL1        0.0008
     29 C         140.1530  139.2059  166.0944 C.2     1  UNL1        0.0033
     30 C         141.4477  139.2546  165.3387 C.3     1  UNL1        0.0950
     31 C         141.5643  138.5758  164.0062 C.2     1  UNL1        0.1745
     32 N         142.7033  138.4545  163.0378 N.2     1  UNL1       -0.0714
     33 C         140.0364  139.8847  167.4271 C.ar    1  UNL1        0.0823
     34 C         141.0471  140.9153  167.8348 C.ar    1  UNL1        0.0532
     35 C         140.9305  141.5940  169.1674 C.ar    1  UNL1        0.1351
     36 N         139.8031  141.2422  170.0922 N.ar    1  UNL1       -0.2090
     37 C         138.7924  140.2116  169.6844 C.ar    1  UNL1        0.2000
     38 N         138.9090  139.5329  168.3518 N.ar    1  UNL1       -0.2242
     39 N         141.9412  142.6246  169.5752 N.pl3   1  UNL1       -0.2897
     40 C         141.5066  143.8404  170.3386 C.3     1  UNL1        0.1136
     41 C         143.3866  142.4393  169.2195 C.3     1  UNL1        0.1136
@<TRIPOS>BOND
     1     8     7    1
     2     8     1    1
     3     1     2   ar
     4     2     3   ar
     5     3     4   ar
     6     4     5   ar
     7     5    22    1
     8    22    24    1
     9    24    25    2
    10    25    26    1
    11    26    27    2
    12    27    28    1
    13    28    29    2
    14    29    33    1
    15    33    34   ar
    16    34    35   ar
    17    35    39    1
    18    39    40    1
    19    39    41    1
    20    35    36   ar
    21    36    37   ar
    22    37    38   ar
    23    29    30    1
    24    30    31    1
    25    31    32    2
    26     5     6   ar
    27     8     9    1
    28     9    10    1
    29    10    11    1
    30    11    12    1
    31    12    13   am
    32    13    14    2
    33    13    17    1
    34    17    18    1
    35    18    19    1
    36    18    20    1
    37    18    21    1
    38    12    15    1
    39    15    16    1
    40     6     1   ar
    41    16     9    1
    42    32    24    1
    43    31    26    1
    44    38    33   ar
    45    22    23    1
@<TRIPOS>MOLECULE
*****
 41 45 0 0 0
SMALL
GASTEIGER

@<TRIPOS>ATOM
      1 C         141.4946  141.0448  168.9468 C.ar    1  UNL1       -0.0020
      2 C         141.2825  141.1760  170.4260 C.ar    1  UNL1        0.0179
      3 C         140.0369  140.6276  171.0566 C.ar    1  UNL1        0.1014
      4 N         139.0034  139.9478  170.2081 N.ar    1  UNL1       -0.2149
      5 C         139.2155  139.8166  168.7290 C.ar    1  UNL1        0.1933
      6 C         140.4611  140.3651  168.0984 C.ar    1  UNL1        0.0487
      7 C         143.6514  142.4844  169.1072 C.3     1  UNL1        0.0222
      8 C         142.7402  141.5933  168.3162 C.3     1  UNL1        0.0804
      9 N         143.0745  141.2508  166.8947 N.3     1  UNL1       -0.2674
     10 C         143.2158  139.8155  166.4824 C.3     1  UNL1        0.0941
     11 C         143.5501  139.4729  165.0608 C.3     1  UNL1        0.1107
     12 N         143.7432  140.5657  164.0515 N.am    1  UNL1       -0.2764
     13 C         144.0775  140.2231  162.6300 C.2     1  UNL1        0.2344
     14 O         144.2706  141.3158  161.6207 O.2     1  UNL1       -0.2746
     15 C         143.6019  142.0010  164.4638 C.3     1  UNL1        0.1107
     16 C         143.2676  142.3435  165.8854 C.3     1  UNL1        0.0941
     17 C         144.2188  138.7878  162.2177 C.3     1  UNL1        0.1882
     18 C         143.1743  138.1504  161.3500 C.3     1  UNL1        0.4063
     19 F         142.1299  137.5130  160.4824 F       1  UNL1       -0.1695
     20 F         142.4348  137.6966  162.5736 F       1  UNL1       -0.1695
     21 F         143.9138  138.6042  160.1265 F       1  UNL1       -0.1695
     22 N         138.1821  139.1369  167.8805 N.pl3   1  UNL1       -0.1848
     23 H         137.4158  138.6869  168.3042 H       1  UNL1        0.2530
     24 C         138.3161  139.1430  166.3865 C.cat   1  UNL1        0.4252
     25 N         138.6917  137.9701  165.5303 N.2     1  UNL1       -0.0676
     26 C         138.7058  138.4252  164.1010 C.2     1  UNL1        0.1887
     27 C         139.0053  137.7033  162.8207 C.2     1  UNL1        0.0396
     28 C         138.9380  138.4356  161.5134 C.2     1  UNL1        0.0008
     29 C         138.5711  139.8898  161.4864 C.2     1  UNL1        0.0033
     30 C         138.2715  140.6116  162.7666 C.3     1  UNL1        0.0950
     31 C         138.3389  139.8793  164.0740 C.2     1  UNL1        0.1745
     32 N         138.0981  140.3229  165.4865 N.2     1  UNL1       -0.0714
     33 C         138.5037  140.6221  160.1790 C.ar    1  UNL1        0.0823
     34 C         139.1720  141.9568  160.0316 C.ar    1  UNL1        0.0532
     35 C         139.1047  142.6891  158.7242 C.ar    1  UNL1        0.1351
     36 N         138.3689  142.0866  157.5642 N.ar    1  UNL1       -0.2090
     37 C         137.7006  140.7518  157.7116 C.ar    1  UNL1        0.2000
     38 N         137.7680  140.0196  159.0189 N.ar    1  UNL1       -0.2242
     39 N         139.7730  144.0238  158.5769 N.pl3   1  UNL1       -0.2897
     40 C         140.2626  144.7556  159.7913 C.3     1  UNL1        0.1136
     41 C         139.9518  144.6268  157.2151 C.3     1  UNL1        0.1136
@<TRIPOS>BOND
     1     8     7    1
     2     8     1    1
     3     1     2   ar
     4     2     3   ar
     5     3     4   ar
     6     4     5   ar
     7     5    22    1
     8    22    24    1
     9    24    25    2
    10    25    26    1
    11    26    27    2
    12    27    28    1
    13    28    29    2
    14    29    33    1
    15    33    34   ar
    16    34    35   ar
    17    35    39    1
    18    39    40    1
    19    39    41    1
    20    35    36   ar
    21    36    37   ar
    22    37    38   ar
    23    29    30    1
    24    30    31    1
    25    31    32    2
    26     5     6   ar
    27     8     9    1
    28     9    10    1
    29    10    11    1
    30    11    12    1
    31    12    13   am
    32    13    14    2
    33    13    17    1
    34    17    18    1
    35    18    19    1
    36    18    20    1
    37    18    21    1
    38    12    15    1
    39    15    16    1
    40     6     1   ar
    41    16     9    1
    42    32    24    1
    43    31    26    1
    44    38    33   ar
    45    22    23    1
@<TRIPOS>MOLECULE
*****
 41 45 0 0 0
SMALL
GASTEIGER

@<TRIPOS>ATOM
      1 C         139.5390  143.5387  157.4364 C.ar    1  UNL1       -0.0020
      2 C         138.6294  143.9038  156.3010 C.ar    1  UNL1        0.0179
      3 C         137.4267  143.0588  156.0019 C.ar    1  UNL1        0.1014
      4 N         137.1336  141.8485  156.8382 N.ar    1  UNL1       -0.2149
      5 C         138.0433  141.4834  157.9737 C.ar    1  UNL1        0.1933
      6 C         139.2460  142.3285  158.2728 C.ar    1  UNL1        0.0487
      7 C         141.0792  145.5476  156.8513 C.3     1  UNL1        0.0222
      8 C         140.7417  144.3838  157.7355 C.3     1  UNL1        0.0804
      9 N         141.6068  144.0651  158.9187 N.3     1  UNL1       -0.2674
     10 C         141.3079  144.6803  160.2536 C.3     1  UNL1        0.0941
     11 C         142.1731  144.3616  161.4369 C.3     1  UNL1        0.1107
     12 N         143.3371  143.4278  161.2851 N.am    1  UNL1       -0.2764
     13 C         144.2022  143.1091  162.4683 C.2     1  UNL1        0.2344
     14 O         145.3662  142.1753  162.3165 O.2     1  UNL1       -0.2746
     15 C         143.6359  142.8126  159.9500 C.3     1  UNL1        0.1107
     16 C         142.7708  143.1313  158.7669 C.3     1  UNL1        0.0941
     17 C         143.9033  143.7243  163.8033 C.3     1  UNL1        0.1882
     18 C         143.7235  142.8498  165.0087 C.3     1  UNL1        0.4063
     19 F         143.5437  141.9753  166.2141 F       1  UNL1       -0.1695
     20 F         144.7023  143.6954  165.7682 F       1  UNL1       -0.1695
     21 F         142.7448  142.0042  164.2492 F       1  UNL1       -0.1695
     22 N         137.7502  140.2732  158.8101 N.pl3   1  UNL1       -0.1848
     23 H         137.2901  139.4993  158.4118 H       1  UNL1        0.2530
     24 C         138.1583  140.2421  160.2532 C.cat   1  UNL1        0.4252
     25 N         137.3259  140.6977  161.4148 N.2     1  UNL1       -0.0676
     26 C         138.1235  140.4871  162.6676 C.2     1  UNL1        0.1887
     27 C         137.8142  140.7530  164.1110 C.2     1  UNL1        0.0396
     28 C         138.8303  140.4333  165.1670 C.2     1  UNL1        0.0008
     29 C         140.1557  139.8475  164.7796 C.2     1  UNL1        0.0033
     30 C         140.4651  139.5816  163.3362 C.3     1  UNL1        0.0950
     31 C         139.4490  139.9014  162.2802 C.2     1  UNL1        0.1745
     32 N         139.4704  139.7500  160.7880 N.2     1  UNL1       -0.0714
     33 C         141.1719  139.5277  165.8357 C.ar    1  UNL1        0.0823
     34 C         140.9434  139.9634  167.2527 C.ar    1  UNL1        0.0532
     35 C         141.9595  139.6436  168.3088 C.ar    1  UNL1        0.1351
     36 N         143.2041  138.8881  167.9479 N.ar    1  UNL1       -0.2090
     37 C         143.4325  138.4524  166.5308 C.ar    1  UNL1        0.2000
     38 N         142.4164  138.7722  165.4747 N.ar    1  UNL1       -0.2242
     39 N         141.7311  140.0793  169.7258 N.pl3   1  UNL1       -0.2897
     40 C         140.3850  140.5914  170.1453 C.3     1  UNL1        0.1136
     41 C         142.8487  140.0030  170.7234 C.3     1  UNL1        0.1136
@<TRIPOS>BOND
     1     8     7    1
     2     8     1    1
     3     1     2   ar
     4     2     3   ar
     5     3     4   ar
     6     4     5   ar
     7     5    22    1
     8    22    24    1
     9    24    25    2
    10    25    26    1
    11    26    27    2
    12    27    28    1
    13    28    29    2
    14    29    33    1
    15    33    34   ar
    16    34    35   ar
    17    35    39    1
    18    39    40    1
    19    39    41    1
    20    35    36   ar
    21    36    37   ar
    22    37    38   ar
    23    29    30    1
    24    30    31    1
    25    31    32    2
    26     5     6   ar
    27     8     9    1
    28     9    10    1
    29    10    11    1
    30    11    12    1
    31    12    13   am
    32    13    14    2
    33    13    17    1
    34    17    18    1
    35    18    19    1
    36    18    20    1
    37    18    21    1
    38    12    15    1
    39    15    16    1
    40     6     1   ar
    41    16     9    1
    42    32    24    1
    43    31    26    1
    44    38    33   ar
    45    22    23    1
@<TRIPOS>MOLECULE
*****
 41 45 0 0 0
SMALL
GASTEIGER

@<TRIPOS>ATOM
      1 C         143.0849  142.5556  157.5445 C.ar    1  UNL1       -0.0020
      2 C         144.1532  142.6074  156.4928 C.ar    1  UNL1        0.0179
      3 C         145.0458  141.4225  156.2714 C.ar    1  UNL1        0.1014
      4 N         144.8702  140.1856  157.1017 N.ar    1  UNL1       -0.2149
      5 C         143.8019  140.1337  158.1534 C.ar    1  UNL1        0.1933
      6 C         142.9092  141.3187  158.3748 C.ar    1  UNL1        0.0487
      7 C         142.0824  144.8038  156.7135 C.3     1  UNL1        0.0222
      8 C         142.1923  143.7406  157.7659 C.3     1  UNL1        0.0804
      9 N         141.4096  143.8624  159.0397 N.3     1  UNL1       -0.2674
     10 C         142.0481  144.4606  160.2580 C.3     1  UNL1        0.0941
     11 C         141.2654  144.5824  161.5319 C.3     1  UNL1        0.1107
     12 N         139.8442  144.1060  161.5873 N.am    1  UNL1       -0.2764
     13 C         139.0615  144.2278  162.8610 C.2     1  UNL1        0.2344
     14 O         137.6402  143.7515  162.9165 O.2     1  UNL1       -0.2746
     15 C         139.2056  143.5078  160.3689 C.3     1  UNL1        0.1107
     16 C         139.9883  143.3860  159.0951 C.3     1  UNL1        0.0941
     17 C         139.7001  144.8260  164.0794 C.3     1  UNL1        0.1882
     18 C         139.7338  144.0532  165.3646 C.3     1  UNL1        0.4063
     19 F         139.7675  143.2804  166.6497 F       1  UNL1       -0.1695
     20 F         140.7763  143.1412  164.7888 F       1  UNL1       -0.1695
     21 F         138.6913  144.9651  165.9403 F       1  UNL1       -0.1695
     22 N         143.6262  138.8969  158.9836 N.pl3   1  UNL1       -0.1848
     23 H         143.6987  138.0087  158.5651 H       1  UNL1        0.2530
     24 C         143.3400  139.0133  160.4514 C.cat   1  UNL1        0.4252
     25 N         144.3624  139.0646  161.5477 N.2     1  UNL1       -0.0676
     26 C         143.6355  139.1818  162.8546 C.2     1  UNL1        0.1887
     27 C         144.1235  139.2721  164.2700 C.2     1  UNL1        0.0396
     28 C         143.1398  139.3834  165.3969 C.2     1  UNL1        0.0008
     29 C         141.6679  139.4045  165.1082 C.2     1  UNL1        0.0033
     30 C         141.1799  139.3142  163.6927 C.3     1  UNL1        0.0950
     31 C         142.1636  139.2029  162.5659 C.2     1  UNL1        0.1745
     32 N         141.9811  139.0987  161.0807 N.2     1  UNL1       -0.0714
     33 C         140.6842  139.5158  166.2351 C.ar    1  UNL1        0.0823
     34 C         141.0691  140.2252  167.4994 C.ar    1  UNL1        0.0532
     35 C         140.0854  140.3365  168.6264 C.ar    1  UNL1        0.1351
     36 N         138.7166  139.7384  168.4889 N.ar    1  UNL1       -0.2090
     37 C         138.3317  139.0291  167.2245 C.ar    1  UNL1        0.2000
     38 N         139.3154  138.9178  166.0976 N.ar    1  UNL1       -0.2242
     39 N         140.4703  141.0459  169.8907 N.pl3   1  UNL1       -0.2897
     40 C         141.6049  140.5293  170.7249 C.3     1  UNL1        0.1136
     41 C         139.7207  142.2718  170.3208 C.3     1  UNL1        0.1136
@<TRIPOS>BOND
     1     8     7    1
     2     8     1    1
     3     1     2   ar
     4     2     3   ar
     5     3     4   ar
     6     4     5   ar
     7     5    22    1
     8    22    24    1
     9    24    25    2
    10    25    26    1
    11    26    27    2
    12    27    28    1
    13    28    29    2
    14    29    33    1
    15    33    34   ar
    16    34    35   ar
    17    35    39    1
    18    39    40    1
    19    39    41    1
    20    35    36   ar
    21    36    37   ar
    22    37    38   ar
    23    29    30    1
    24    30    31    1
    25    31    32    2
    26     5     6   ar
    27     8     9    1
    28     9    10    1
    29    10    11    1
    30    11    12    1
    31    12    13   am
    32    13    14    2
    33    13    17    1
    34    17    18    1
    35    18    19    1
    36    18    20    1
    37    18    21    1
    38    12    15    1
    39    15    16    1
    40     6     1   ar
    41    16     9    1
    42    32    24    1
    43    31    26    1
    44    38    33   ar
    45    22    23    1
@<TRIPOS>MOLECULE
*****
 41 45 0 0 0
SMALL
GASTEIGER

@<TRIPOS>ATOM
      1 C         140.9280  141.1635  168.3409 C.ar    1  UNL1       -0.0020
      2 C         140.4228  141.2035  169.7527 C.ar    1  UNL1        0.0179
      3 C         139.2014  140.4210  170.1346 C.ar    1  UNL1        0.1014
      4 N         138.4852  139.5985  169.1048 N.ar    1  UNL1       -0.2149
      5 C         138.9904  139.5585  167.6930 C.ar    1  UNL1        0.1933
      6 C         140.2118  140.3410  167.3110 C.ar    1  UNL1        0.0487
      7 C         143.2377  142.1762  168.9652 C.3     1  UNL1        0.0222
      8 C         142.1494  141.9460  167.9589 C.3     1  UNL1        0.0804
      9 N         142.2825  142.4983  166.5707 N.3     1  UNL1       -0.2674
     10 C         141.0729  143.0156  165.8501 C.3     1  UNL1        0.0941
     11 C         141.2060  143.5679  164.4618 C.3     1  UNL1        0.1107
     12 N         142.5487  143.6029  163.7941 N.am    1  UNL1       -0.2764
     13 C         142.6819  144.1552  162.4059 C.2     1  UNL1        0.2344
     14 O         144.0246  144.1902  161.7382 O.2     1  UNL1       -0.2746
     15 C         143.7584  143.0856  164.5147 C.3     1  UNL1        0.1107
     16 C         143.6253  142.5333  165.9030 C.3     1  UNL1        0.0941
     17 C         141.4722  144.6724  161.6854 C.3     1  UNL1        0.1882
     18 C         140.9723  143.9691  160.4583 C.3     1  UNL1        0.4063
     19 F         140.4724  143.2658  159.2314 F       1  UNL1       -0.1695
     20 F         140.9981  145.2657  159.7046 F       1  UNL1       -0.1695
     21 F         140.9466  142.6725  161.2121 F       1  UNL1       -0.1695
     22 N         138.2742  138.7360  166.6632 N.pl3   1  UNL1       -0.1848
     23 H         137.7840  137.9262  166.9338 H       1  UNL1        0.2530
     24 C         138.3048  139.1472  165.2210 C.cat   1  UNL1        0.4252
     25 N         137.8943  140.4831  164.6761 N.2     1  UNL1       -0.0676
     26 C         138.0871  140.4563  163.1888 C.2     1  UNL1        0.1887
     27 C         137.8488  141.4887  162.1271 C.2     1  UNL1        0.0396
     28 C         138.1402  141.1686  160.6909 C.2     1  UNL1        0.0008
     29 C         138.6700  139.8161  160.3165 C.2     1  UNL1        0.0033
     30 C         138.9084  138.7838  161.3783 C.3     1  UNL1        0.0950
     31 C         138.6169  139.1038  162.8144 C.2     1  UNL1        0.1745
     32 N         138.7515  138.2948  164.0704 N.2     1  UNL1       -0.0714
     33 C         138.9615  139.4961  158.8803 C.ar    1  UNL1        0.0823
     34 C         140.0056  138.4756  158.5363 C.ar    1  UNL1        0.0532
     35 C         140.2971  138.1555  157.1001 C.ar    1  UNL1        0.1351
     36 N         139.5443  138.8560  156.0079 N.ar    1  UNL1       -0.2090
     37 C         138.5002  139.8765  156.3520 C.ar    1  UNL1        0.2000
     38 N         138.2088  140.1965  157.7882 N.ar    1  UNL1       -0.2242
     39 N         141.3412  137.1350  156.7560 N.pl3   1  UNL1       -0.2897
     40 C         142.6536  137.1305  157.4824 C.3     1  UNL1        0.1136
     41 C         141.0729  136.1191  155.6856 C.3     1  UNL1        0.1136
@<TRIPOS>BOND
     1     8     7    1
     2     8     1    1
     3     1     2   ar
     4     2     3   ar
     5     3     4   ar
     6     4     5   ar
     7     5    22    1
     8    22    24    1
     9    24    25    2
    10    25    26    1
    11    26    27    2
    12    27    28    1
    13    28    29    2
    14    29    33    1
    15    33    34   ar
    16    34    35   ar
    17    35    39    1
    18    39    40    1
    19    39    41    1
    20    35    36   ar
    21    36    37   ar
    22    37    38   ar
    23    29    30    1
    24    30    31    1
    25    31    32    2
    26     5     6   ar
    27     8     9    1
    28     9    10    1
    29    10    11    1
    30    11    12    1
    31    12    13   am
    32    13    14    2
    33    13    17    1
    34    17    18    1
    35    18    19    1
    36    18    20    1
    37    18    21    1
    38    12    15    1
    39    15    16    1
    40     6     1   ar
    41    16     9    1
    42    32    24    1
    43    31    26    1
    44    38    33   ar
    45    22    23    1
