@<TRIPOS>MOLECULE
*****
 34 37 0 0 0
SMALL
GASTEIGER

@<TRIPOS>ATOM
      1 C         141.6190  143.6786  162.0852 C.3     1  UNL1        0.1751
      2 C         141.9118  143.9171  160.6335 C.ar    1  UNL1        0.0089
      3 C         142.8474  143.2429  159.6743 C.ar    1  UNL1       -0.0021
      4 C         142.9268  143.7096  158.2510 C.ar    1  UNL1       -0.0003
      5 C         142.0706  144.8504  157.7869 C.ar    1  UNL1        0.0001
      6 C         141.1350  145.5246  158.7460 C.ar    1  UNL1        0.0043
      7 C         141.0556  145.0579  160.1694 C.ar    1  UNL1        0.0516
      8 C         140.2337  145.5244  161.3342 C.2     1  UNL1        0.2493
      9 O         139.2383  146.6465  161.3178 O.2     1  UNL1       -0.2699
     10 N         140.5819  144.6719  162.5183 N.am    1  UNL1       -0.2658
     11 O         141.7592  141.2150  162.8983 O.2     1  UNL1       -0.2729
     12 C         142.2522  142.6306  162.9517 C.2     1  UNL1        0.2451
     13 N         143.3786  142.9983  163.8717 N.am    1  UNL1       -0.2988
     14 H         143.7022  143.9274  163.9068 H       1  UNL1        0.1498
     15 C         144.0118  141.9503  164.7382 C.3     1  UNL1        0.1164
     16 C         143.2618  141.3946  165.9123 C.ar    1  UNL1       -0.0024
     17 C         143.0350  139.9162  166.0259 C.ar    1  UNL1        0.0005
     18 C         142.2850  139.3606  167.2001 C.ar    1  UNL1        0.0369
     19 C         141.7618  140.2833  168.2608 C.ar    1  UNL1        0.1468
     20 C         141.9886  141.7617  168.1472 C.ar    1  UNL1        0.0369
     21 C         142.7387  142.3173  166.9729 C.ar    1  UNL1        0.0005
     22 O         141.0118  139.7276  169.4349 O.3     1  UNL1       -0.4045
     23 C         139.6778  140.3003  169.8121 C.3     1  UNL1        0.5753
     24 F         138.3437  140.8731  170.1892 F       1  UNL1       -0.1328
     25 F         139.0847  139.7510  168.5486 F       1  UNL1       -0.1328
     26 F         140.2708  140.8496  171.0756 F       1  UNL1       -0.1328
     27 C         139.9959  144.7918  163.8938 C.3     1  UNL1        0.0991
     28 C         138.6979  144.1134  164.2178 C.3     1  UNL1        0.0480
     29 C         138.6149  142.6157  164.2221 C.ar    1  UNL1       -0.0174
     30 C         139.2897  141.8303  165.3074 C.ar    1  UNL1        0.0165
     31 C         139.2068  140.3326  165.3117 C.ar    1  UNL1        0.0986
     32 N         138.4490  139.6203  164.2307 N.ar    1  UNL1       -0.2423
     33 C         137.7743  140.4058  163.1455 C.ar    1  UNL1        0.0986
     34 C         137.8572  141.9035  163.1412 C.ar    1  UNL1        0.0165
@<TRIPOS>BOND
     1    11    12    2
     2    12    13   am
     3    13    15    1
     4    15    16    1
     5    16    17   ar
     6    17    18   ar
     7    18    19   ar
     8    19    22    1
     9    22    23    1
    10    23    24    1
    11    23    25    1
    12    23    26    1
    13    19    20   ar
    14    20    21   ar
    15    12     1    1
    16     1     2    1
    17     2     3   ar
    18     3     4   ar
    19     4     5   ar
    20     5     6   ar
    21     6     7   ar
    22     7     8    1
    23     8     9    2
    24     8    10   am
    25    10    27    1
    26    27    28    1
    27    28    29    1
    28    29    30   ar
    29    30    31   ar
    30    31    32   ar
    31    32    33   ar
    32    33    34   ar
    33    21    16   ar
    34    10     1    1
    35    34    29   ar
    36     7     2   ar
    37    13    14    1
@<TRIPOS>MOLECULE
*****
 34 37 0 0 0
SMALL
GASTEIGER

@<TRIPOS>ATOM
      1 C         142.1035  144.0080  161.5593 C.3     1  UNL1        0.1751
      2 C         141.9311  144.1662  160.0776 C.ar    1  UNL1        0.0089
      3 C         142.6444  143.5470  158.9124 C.ar    1  UNL1       -0.0021
      4 C         142.2440  143.9046  157.5118 C.ar    1  UNL1       -0.0003
      5 C         141.1304  144.8816  157.2765 C.ar    1  UNL1        0.0001
      6 C         140.4171  145.5008  158.4417 C.ar    1  UNL1        0.0043
      7 C         140.8175  145.1432  159.8422 C.ar    1  UNL1        0.0516
      8 C         140.3016  145.5887  161.1784 C.2     1  UNL1        0.2493
      9 O         139.1867  146.5645  161.4123 O.2     1  UNL1       -0.2699
     10 N         141.0964  144.8871  162.2396 N.am    1  UNL1       -0.2658
     11 O         144.5258  143.5854  162.3981 O.2     1  UNL1       -0.2729
     12 C         143.1068  143.1255  162.2409 C.2     1  UNL1        0.2451
     13 N         142.6910  141.7830  162.7654 N.am    1  UNL1       -0.2988
     14 H         141.7597  141.4811  162.6622 H       1  UNL1        0.1498
     15 C         143.6944  140.9006  163.4470 C.3     1  UNL1        0.1164
     16 C         143.4404  140.4159  164.8436 C.ar    1  UNL1       -0.0024
     17 C         142.9181  141.3631  165.8829 C.ar    1  UNL1        0.0005
     18 C         142.6642  140.8783  167.2795 C.ar    1  UNL1        0.0369
     19 C         142.9326  139.4465  167.6369 C.ar    1  UNL1        0.1468
     20 C         143.4549  138.4993  166.5977 C.ar    1  UNL1        0.0369
     21 C         143.7088  138.9841  165.2010 C.ar    1  UNL1        0.0005
     22 O         142.6786  138.9618  169.0335 O.3     1  UNL1       -0.4045
     23 C         142.1029  139.8941  170.0579 C.3     1  UNL1        0.5753
     24 F         141.5271  140.8264  171.0823 F       1  UNL1       -0.1328
     25 F         140.7195  139.4512  169.6834 F       1  UNL1       -0.1328
     26 F         143.4862  140.3369  170.4324 F       1  UNL1       -0.1328
     27 C         140.9158  145.0382  163.7210 C.3     1  UNL1        0.0991
     28 C         139.5870  144.7382  164.3490 C.3     1  UNL1        0.0480
     29 C         138.9983  143.3630  164.2379 C.ar    1  UNL1       -0.0174
     30 C         139.4455  142.2780  165.1723 C.ar    1  UNL1        0.0165
     31 C         138.8568  140.9028  165.0612 C.ar    1  UNL1        0.0986
     32 N         137.8210  140.6126  164.0157 N.ar    1  UNL1       -0.2423
     33 C         137.3739  141.6976  163.0815 C.ar    1  UNL1        0.0986
     34 C         137.9625  143.0728  163.1926 C.ar    1  UNL1        0.0165
@<TRIPOS>BOND
     1    11    12    2
     2    12    13   am
     3    13    15    1
     4    15    16    1
     5    16    17   ar
     6    17    18   ar
     7    18    19   ar
     8    19    22    1
     9    22    23    1
    10    23    24    1
    11    23    25    1
    12    23    26    1
    13    19    20   ar
    14    20    21   ar
    15    12     1    1
    16     1     2    1
    17     2     3   ar
    18     3     4   ar
    19     4     5   ar
    20     5     6   ar
    21     6     7   ar
    22     7     8    1
    23     8     9    2
    24     8    10   am
    25    10    27    1
    26    27    28    1
    27    28    29    1
    28    29    30   ar
    29    30    31   ar
    30    31    32   ar
    31    32    33   ar
    32    33    34   ar
    33    21    16   ar
    34    10     1    1
    35    34    29   ar
    36     7     2   ar
    37    13    14    1
@<TRIPOS>MOLECULE
*****
 34 37 0 0 0
SMALL
GASTEIGER

@<TRIPOS>ATOM
      1 C         141.3066  140.7086  166.6840 C.3     1  UNL1        0.1751
      2 C         141.1093  141.4906  167.9488 C.ar    1  UNL1        0.0089
      3 C         141.8743  142.6302  168.5538 C.ar    1  UNL1       -0.0021
      4 C         141.4303  143.2227  169.8584 C.ar    1  UNL1       -0.0003
      5 C         140.2215  142.6755  170.5579 C.ar    1  UNL1        0.0001
      6 C         139.4566  141.5359  169.9528 C.ar    1  UNL1        0.0043
      7 C         139.9005  140.9435  168.6483 C.ar    1  UNL1        0.0516
      8 C         139.3507  139.8233  167.8158 C.2     1  UNL1        0.2493
      9 O         138.1437  138.9939  168.1404 O.2     1  UNL1       -0.2699
     10 N         140.2197  139.6781  166.6019 N.am    1  UNL1       -0.2658
     11 O         142.4826  142.2128  164.9221 O.2     1  UNL1       -0.2729
     12 C         142.3990  140.9200  165.6781 C.2     1  UNL1        0.2451
     13 N         143.4079  139.8384  165.4281 N.am    1  UNL1       -0.2988
     14 H         143.3531  138.9899  165.9242 H       1  UNL1        0.1498
     15 C         144.5003  140.0498  164.4221 C.3     1  UNL1        0.1164
     16 C         144.2377  139.8009  162.9664 C.ar    1  UNL1       -0.0024
     17 C         143.9312  138.4134  162.4861 C.ar    1  UNL1        0.0005
     18 C         143.6686  138.1646  161.0304 C.ar    1  UNL1        0.0369
     19 C         143.7125  139.3033  160.0549 C.ar    1  UNL1        0.1468
     20 C         144.0190  140.6908  160.5352 C.ar    1  UNL1        0.0369
     21 C         144.2817  140.9397  161.9910 C.ar    1  UNL1        0.0005
     22 O         143.4499  139.0544  158.5992 O.3     1  UNL1       -0.4045
     23 C         142.2092  138.3260  158.1747 C.3     1  UNL1        0.5753
     24 F         140.9686  137.5977  157.7502 F       1  UNL1       -0.1328
     25 F         143.0496  137.1975  157.6550 F       1  UNL1       -0.1328
     26 F         141.3689  139.4546  158.6945 F       1  UNL1       -0.1328
     27 C         140.0344  138.6781  165.4993 C.3     1  UNL1        0.0991
     28 C         138.7120  138.5695  164.7998 C.3     1  UNL1        0.0480
     29 C         138.2796  139.6405  163.8427 C.ar    1  UNL1       -0.0174
     30 C         138.1183  139.3236  162.3854 C.ar    1  UNL1        0.0165
     31 C         137.6859  140.3946  161.4284 C.ar    1  UNL1        0.0986
     32 N         137.4147  141.7825  161.9286 N.ar    1  UNL1       -0.2423
     33 C         137.5760  142.0994  163.3858 C.ar    1  UNL1        0.0986
     34 C         138.0084  141.0284  164.3429 C.ar    1  UNL1        0.0165
@<TRIPOS>BOND
     1    11    12    2
     2    12    13   am
     3    13    15    1
     4    15    16    1
     5    16    17   ar
     6    17    18   ar
     7    18    19   ar
     8    19    22    1
     9    22    23    1
    10    23    24    1
    11    23    25    1
    12    23    26    1
    13    19    20   ar
    14    20    21   ar
    15    12     1    1
    16     1     2    1
    17     2     3   ar
    18     3     4   ar
    19     4     5   ar
    20     5     6   ar
    21     6     7   ar
    22     7     8    1
    23     8     9    2
    24     8    10   am
    25    10    27    1
    26    27    28    1
    27    28    29    1
    28    29    30   ar
    29    30    31   ar
    30    31    32   ar
    31    32    33   ar
    32    33    34   ar
    33    21    16   ar
    34    10     1    1
    35    34    29   ar
    36     7     2   ar
    37    13    14    1
@<TRIPOS>MOLECULE
*****
 34 37 0 0 0
SMALL
GASTEIGER

@<TRIPOS>ATOM
      1 C         140.6074  138.7788  162.0100 C.3     1  UNL1        0.1751
      2 C         141.0439  138.5166  160.5990 C.ar    1  UNL1        0.0089
      3 C         142.3496  138.0569  160.0214 C.ar    1  UNL1       -0.0021
      4 C         142.4930  137.8800  158.5388 C.ar    1  UNL1       -0.0003
      5 C         141.3306  138.1629  157.6338 C.ar    1  UNL1        0.0001
      6 C         140.0249  138.6226  158.2115 C.ar    1  UNL1        0.0043
      7 C         139.8816  138.7995  159.6941 C.ar    1  UNL1        0.0516
      8 C         138.7267  139.2365  160.5458 C.2     1  UNL1        0.2493
      9 O         137.3627  139.6191  160.0527 O.2     1  UNL1       -0.2699
     10 N         139.1753  139.2237  161.9771 N.am    1  UNL1       -0.2658
     11 O         141.1409  137.5464  164.2340 O.2     1  UNL1       -0.2729
     12 C         141.4544  138.6233  163.2382 C.2     1  UNL1        0.2451
     13 N         142.6149  139.5449  163.4705 N.am    1  UNL1       -0.2988
     14 H         142.8207  140.2518  162.8169 H       1  UNL1        0.1498
     15 C         143.4619  139.3895  164.6987 C.3     1  UNL1        0.1164
     16 C         143.0141  139.9881  165.9991 C.ar    1  UNL1       -0.0024
     17 C         142.8755  139.1214  167.2155 C.ar    1  UNL1        0.0005
     18 C         142.4277  139.7201  168.5159 C.ar    1  UNL1        0.0369
     19 C         142.1185  141.1855  168.6000 C.ar    1  UNL1        0.1468
     20 C         142.2571  142.0522  167.3836 C.ar    1  UNL1        0.0369
     21 C         142.7049  141.4534  166.0831 C.ar    1  UNL1        0.0005
     22 O         141.6707  141.7841  169.9004 O.3     1  UNL1       -0.4045
     23 C         141.1699  143.1974  169.9426 C.3     1  UNL1        0.5753
     24 F         140.6691  144.6107  169.9848 F       1  UNL1       -0.1328
     25 F         139.8060  142.7263  169.5329 F       1  UNL1       -0.1328
     26 F         142.5338  143.6684  170.3523 F       1  UNL1       -0.1328
     27 C         138.3387  139.5912  163.1666 C.3     1  UNL1        0.0991
     28 C         137.5035  140.8369  163.1401 C.3     1  UNL1        0.0480
     29 C         138.0944  142.1454  163.5744 C.ar    1  UNL1       -0.0174
     30 C         138.9083  142.2201  164.8322 C.ar    1  UNL1        0.0165
     31 C         139.4992  143.5286  165.2666 C.ar    1  UNL1        0.0986
     32 N         139.2761  144.7624  164.4431 N.ar    1  UNL1       -0.2423
     33 C         138.4622  144.6877  163.1854 C.ar    1  UNL1        0.0986
     34 C         137.8713  143.3792  162.7511 C.ar    1  UNL1        0.0165
@<TRIPOS>BOND
     1    11    12    2
     2    12    13   am
     3    13    15    1
     4    15    16    1
     5    16    17   ar
     6    17    18   ar
     7    18    19   ar
     8    19    22    1
     9    22    23    1
    10    23    24    1
    11    23    25    1
    12    23    26    1
    13    19    20   ar
    14    20    21   ar
    15    12     1    1
    16     1     2    1
    17     2     3   ar
    18     3     4   ar
    19     4     5   ar
    20     5     6   ar
    21     6     7   ar
    22     7     8    1
    23     8     9    2
    24     8    10   am
    25    10    27    1
    26    27    28    1
    27    28    29    1
    28    29    30   ar
    29    30    31   ar
    30    31    32   ar
    31    32    33   ar
    32    33    34   ar
    33    21    16   ar
    34    10     1    1
    35    34    29   ar
    36     7     2   ar
    37    13    14    1
@<TRIPOS>MOLECULE
*****
 34 37 0 0 0
SMALL
GASTEIGER

@<TRIPOS>ATOM
      1 C         138.9663  142.7403  162.2814 C.3     1  UNL1        0.1751
      2 C         138.7166  142.0656  160.9652 C.ar    1  UNL1        0.0089
      3 C         138.0509  140.7685  160.6126 C.ar    1  UNL1       -0.0021
      4 C         137.9461  140.3451  159.1775 C.ar    1  UNL1       -0.0003
      5 C         138.5071  141.2188  158.0949 C.ar    1  UNL1        0.0001
      6 C         139.1728  142.5159  158.4475 C.ar    1  UNL1        0.0043
      7 C         139.2775  142.9393  159.8827 C.ar    1  UNL1        0.0516
      8 C         139.8739  144.1540  160.5298 C.2     1  UNL1        0.2493
      9 O         140.5448  145.2919  159.8192 O.2     1  UNL1       -0.2699
     10 N         139.6816  144.0310  162.0123 N.am    1  UNL1       -0.2658
     11 O         137.6041  142.9868  164.4799 O.2     1  UNL1       -0.2729
     12 C         138.5703  142.2163  163.6300 C.2     1  UNL1        0.2451
     13 N         139.1406  140.9215  164.1286 N.am    1  UNL1       -0.2988
     14 H         139.7748  140.4157  163.5707 H       1  UNL1        0.1498
     15 C         138.7446  140.3975  165.4771 C.3     1  UNL1        0.1164
     16 C         139.5263  140.7933  166.6946 C.ar    1  UNL1       -0.0024
     17 C         140.2606  142.1009  166.7221 C.ar    1  UNL1        0.0005
     18 C         141.0423  142.4966  167.9396 C.ar    1  UNL1        0.0369
     19 C         141.0896  141.5847  169.1298 C.ar    1  UNL1        0.1468
     20 C         140.3552  140.2771  169.1022 C.ar    1  UNL1        0.0369
     21 C         139.5735  139.8813  167.8846 C.ar    1  UNL1        0.0005
     22 O         141.8713  141.9805  170.3472 O.3     1  UNL1       -0.4045
     23 C         143.3227  142.3381  170.2232 C.3     1  UNL1        0.5753
     24 F         144.7741  142.6958  170.0992 F       1  UNL1       -0.1328
     25 F         143.6206  140.9557  169.7230 F       1  UNL1       -0.1328
     26 F         143.0248  143.7206  170.7234 F       1  UNL1       -0.1328
     27 C         140.1264  145.0244  163.0445 C.3     1  UNL1        0.0991
     28 C         141.0585  144.6005  164.1407 C.3     1  UNL1        0.0480
     29 C         142.3807  143.9783  163.8021 C.ar    1  UNL1       -0.0174
     30 C         143.0468  144.2963  162.4962 C.ar    1  UNL1        0.0165
     31 C         144.3690  143.6741  162.1576 C.ar    1  UNL1        0.0986
     32 N         145.0251  142.7338  163.1249 N.ar    1  UNL1       -0.2423
     33 C         144.3589  142.4158  164.4307 C.ar    1  UNL1        0.0986
     34 C         143.0367  143.0380  164.7693 C.ar    1  UNL1        0.0165
@<TRIPOS>BOND
     1    11    12    2
     2    12    13   am
     3    13    15    1
     4    15    16    1
     5    16    17   ar
     6    17    18   ar
     7    18    19   ar
     8    19    22    1
     9    22    23    1
    10    23    24    1
    11    23    25    1
    12    23    26    1
    13    19    20   ar
    14    20    21   ar
    15    12     1    1
    16     1     2    1
    17     2     3   ar
    18     3     4   ar
    19     4     5   ar
    20     5     6   ar
    21     6     7   ar
    22     7     8    1
    23     8     9    2
    24     8    10   am
    25    10    27    1
    26    27    28    1
    27    28    29    1
    28    29    30   ar
    29    30    31   ar
    30    31    32   ar
    31    32    33   ar
    32    33    34   ar
    33    21    16   ar
    34    10     1    1
    35    34    29   ar
    36     7     2   ar
    37    13    14    1
@<TRIPOS>MOLECULE
*****
 34 37 0 0 0
SMALL
GASTEIGER

@<TRIPOS>ATOM
      1 C         139.1725  142.4542  161.5611 C.3     1  UNL1        0.1751
      2 C         139.5933  142.3750  160.1235 C.ar    1  UNL1        0.0089
      3 C         139.7598  141.2136  159.1889 C.ar    1  UNL1       -0.0021
      4 C         140.2035  141.4463  157.7751 C.ar    1  UNL1       -0.0003
      5 C         140.4807  142.8404  157.2959 C.ar    1  UNL1        0.0001
      6 C         140.3142  144.0017  158.2304 C.ar    1  UNL1        0.0043
      7 C         139.8705  143.7690  159.6442 C.ar    1  UNL1        0.0516
      8 C         139.6211  144.7098  160.7857 C.2     1  UNL1        0.2493
      9 O         139.7759  146.2013  160.7488 O.2     1  UNL1       -0.2699
     10 N         139.1897  143.8971  161.9704 N.am    1  UNL1       -0.2658
     11 O         137.4030  141.1745  162.9686 O.2     1  UNL1       -0.2729
     12 C         138.8000  141.2940  162.4359 C.2     1  UNL1        0.2451
     13 N         139.8247  140.2532  162.7780 N.am    1  UNL1       -0.2988
     14 H         140.7417  140.3316  162.4284 H       1  UNL1        0.1498
     15 C         139.4521  139.0930  163.6528 C.3     1  UNL1        0.1164
     16 C         139.2991  139.2880  165.1321 C.ar    1  UNL1       -0.0024
     17 C         138.1202  138.6989  165.8483 C.ar    1  UNL1        0.0005
     18 C         137.9672  138.8939  167.3277 C.ar    1  UNL1        0.0369
     19 C         138.9932  139.6781  168.0909 C.ar    1  UNL1        0.1468
     20 C         140.1722  140.2672  167.3747 C.ar    1  UNL1        0.0369
     21 C         140.3252  140.0722  165.8952 C.ar    1  UNL1        0.0005
     22 O         138.8402  139.8731  169.5703 O.3     1  UNL1       -0.4045
     23 C         139.8939  140.6102  170.3426 C.3     1  UNL1        0.5753
     24 F         140.9476  141.3472  171.1150 F       1  UNL1       -0.1328
     25 F         139.0936  141.8737  170.2286 F       1  UNL1       -0.1328
     26 F         140.6942  139.3466  170.4566 F       1  UNL1       -0.1328
     27 C         138.8374  144.4333  163.3262 C.3     1  UNL1        0.0991
     28 C         139.7471  144.1815  164.4919 C.3     1  UNL1        0.0480
     29 C         141.2293  144.0891  164.2803 C.ar    1  UNL1       -0.0174
     30 C         141.9579  142.8227  164.6204 C.ar    1  UNL1        0.0165
     31 C         143.4400  142.7303  164.4088 C.ar    1  UNL1        0.0986
     32 N         144.1935  143.9042  163.8572 N.ar    1  UNL1       -0.2423
     33 C         143.4649  145.1705  163.5172 C.ar    1  UNL1        0.0986
     34 C         141.9828  145.2629  163.7288 C.ar    1  UNL1        0.0165
@<TRIPOS>BOND
     1    11    12    2
     2    12    13   am
     3    13    15    1
     4    15    16    1
     5    16    17   ar
     6    17    18   ar
     7    18    19   ar
     8    19    22    1
     9    22    23    1
    10    23    24    1
    11    23    25    1
    12    23    26    1
    13    19    20   ar
    14    20    21   ar
    15    12     1    1
    16     1     2    1
    17     2     3   ar
    18     3     4   ar
    19     4     5   ar
    20     5     6   ar
    21     6     7   ar
    22     7     8    1
    23     8     9    2
    24     8    10   am
    25    10    27    1
    26    27    28    1
    27    28    29    1
    28    29    30   ar
    29    30    31   ar
    30    31    32   ar
    31    32    33   ar
    32    33    34   ar
    33    21    16   ar
    34    10     1    1
    35    34    29   ar
    36     7     2   ar
    37    13    14    1
@<TRIPOS>MOLECULE
*****
 34 37 0 0 0
SMALL
GASTEIGER

@<TRIPOS>ATOM
      1 C         141.9312  137.6892  157.9560 C.3     1  UNL1        0.1751
      2 C         142.2904  136.7628  156.8323 C.ar    1  UNL1        0.0089
      3 C         143.5681  136.0604  156.4801 C.ar    1  UNL1       -0.0021
      4 C         143.6291  135.1773  155.2691 C.ar    1  UNL1       -0.0003
      5 C         142.4126  134.9966  154.4105 C.ar    1  UNL1        0.0001
      6 C         141.1349  135.6990  154.7628 C.ar    1  UNL1        0.0043
      7 C         141.0738  136.5821  155.9737 C.ar    1  UNL1        0.0516
      8 C         139.9628  137.3969  156.5667 C.2     1  UNL1        0.2493
      9 O         138.5669  137.5079  156.0290 O.2     1  UNL1       -0.2699
     10 N         140.4926  138.0811  157.7919 N.am    1  UNL1       -0.2658
     11 O         143.8030  139.2760  158.8094 O.2     1  UNL1       -0.2729
     12 C         142.8494  138.1439  159.0516 C.2     1  UNL1        0.2451
     13 N         142.8140  137.4663  160.3894 N.am    1  UNL1       -0.2988
     14 H         142.1881  136.7232  160.5484 H       1  UNL1        0.1498
     15 C         143.7322  137.9210  161.4850 C.3     1  UNL1        0.1164
     16 C         143.1726  138.2953  162.8254 C.ar    1  UNL1       -0.0024
     17 C         143.8946  139.2864  163.6893 C.ar    1  UNL1        0.0005
     18 C         143.3349  139.6607  165.0297 C.ar    1  UNL1        0.0369
     19 C         142.0534  139.0438  165.5063 C.ar    1  UNL1        0.1468
     20 C         141.3314  138.0526  164.6424 C.ar    1  UNL1        0.0369
     21 C         141.8911  137.6783  163.3019 C.ar    1  UNL1        0.0005
     22 O         141.4938  139.4180  166.8467 O.3     1  UNL1       -0.4045
     23 C         142.3757  140.0641  167.8738 C.3     1  UNL1        0.5753
     24 F         143.2576  140.7101  168.9009 F       1  UNL1       -0.1328
     25 F         142.8885  138.7149  168.2821 F       1  UNL1       -0.1328
     26 F         141.8629  141.4132  167.4655 F       1  UNL1       -0.1328
     27 C         139.7197  138.9965  158.6945 C.3     1  UNL1        0.0991
     28 C         139.2801  138.5205  160.0473 C.3     1  UNL1        0.0480
     29 C         139.4224  139.4178  161.2408 C.ar    1  UNL1       -0.0174
     30 C         140.5597  140.3931  161.3146 C.ar    1  UNL1        0.0165
     31 C         140.7019  141.2905  162.5081 C.ar    1  UNL1        0.0986
     32 N         139.7068  141.2125  163.6279 N.ar    1  UNL1       -0.2423
     33 C         138.5696  140.2373  163.5541 C.ar    1  UNL1        0.0986
     34 C         138.4273  139.3399  162.3605 C.ar    1  UNL1        0.0165
@<TRIPOS>BOND
     1    11    12    2
     2    12    13   am
     3    13    15    1
     4    15    16    1
     5    16    17   ar
     6    17    18   ar
     7    18    19   ar
     8    19    22    1
     9    22    23    1
    10    23    24    1
    11    23    25    1
    12    23    26    1
    13    19    20   ar
    14    20    21   ar
    15    12     1    1
    16     1     2    1
    17     2     3   ar
    18     3     4   ar
    19     4     5   ar
    20     5     6   ar
    21     6     7   ar
    22     7     8    1
    23     8     9    2
    24     8    10   am
    25    10    27    1
    26    27    28    1
    27    28    29    1
    28    29    30   ar
    29    30    31   ar
    30    31    32   ar
    31    32    33   ar
    32    33    34   ar
    33    21    16   ar
    34    10     1    1
    35    34    29   ar
    36     7     2   ar
    37    13    14    1
@<TRIPOS>MOLECULE
*****
 34 37 0 0 0
SMALL
GASTEIGER

@<TRIPOS>ATOM
      1 C         140.8704  140.9991  166.6053 C.3     1  UNL1        0.1751
      2 C         141.2064  141.6325  167.9228 C.ar    1  UNL1        0.0089
      3 C         140.7202  142.8865  168.5867 C.ar    1  UNL1       -0.0021
      4 C         141.2479  143.2737  169.9364 C.ar    1  UNL1       -0.0003
      5 C         142.2619  142.4067  170.6221 C.ar    1  UNL1        0.0001
      6 C         142.7482  141.1527  169.9582 C.ar    1  UNL1        0.0043
      7 C         142.2204  140.7655  168.6086 C.ar    1  UNL1        0.0516
      8 C         142.5110  139.5964  167.7148 C.2     1  UNL1        0.2493
      9 O         143.4680  138.4791  168.0078 O.2     1  UNL1       -0.2699
     10 N         141.6766  139.7408  166.4767 N.am    1  UNL1       -0.2658
     11 O         138.7310  140.6935  165.1631 O.2     1  UNL1       -0.2729
     12 C         139.8986  141.5308  165.5939 C.2     1  UNL1        0.2451
     13 N         140.0944  142.9000  165.0132 N.am    1  UNL1       -0.2988
     14 H         140.8607  143.4496  165.2958 H       1  UNL1        0.1498
     15 C         139.1226  143.4317  164.0017 C.3     1  UNL1        0.1164
     16 C         139.6234  143.9985  162.7064 C.ar    1  UNL1       -0.0024
     17 C         140.2328  143.0932  161.6773 C.ar    1  UNL1        0.0005
     18 C         140.7335  143.6601  160.3820 C.ar    1  UNL1        0.0369
     19 C         140.6249  145.1323  160.1157 C.ar    1  UNL1        0.1468
     20 C         140.0155  146.0376  161.1448 C.ar    1  UNL1        0.0369
     21 C         139.5147  145.4707  162.4402 C.ar    1  UNL1        0.0005
     22 O         141.1256  145.6991  158.8203 O.3     1  UNL1       -0.4045
     23 C         141.0649  144.8757  157.5680 C.3     1  UNL1        0.5753
     24 F         141.0041  144.0523  156.3157 F       1  UNL1       -0.1328
     25 F         142.5636  144.8532  157.5101 F       1  UNL1       -0.1328
     26 F         139.5662  144.8981  157.6260 F       1  UNL1       -0.1328
     27 C         141.6527  138.7932  165.3142 C.3     1  UNL1        0.0991
     28 C         142.8358  138.7017  164.3967 C.3     1  UNL1        0.0480
     29 C         143.5719  139.9457  163.9957 C.ar    1  UNL1       -0.0174
     30 C         142.8328  141.0782  163.3465 C.ar    1  UNL1        0.0165
     31 C         143.5689  142.3221  162.9456 C.ar    1  UNL1        0.0986
     32 N         145.0441  142.4335  163.1937 N.ar    1  UNL1       -0.2423
     33 C         145.7831  141.3011  163.8428 C.ar    1  UNL1        0.0986
     34 C         145.0470  140.0572  164.2438 C.ar    1  UNL1        0.0165
@<TRIPOS>BOND
     1    11    12    2
     2    12    13   am
     3    13    15    1
     4    15    16    1
     5    16    17   ar
     6    17    18   ar
     7    18    19   ar
     8    19    22    1
     9    22    23    1
    10    23    24    1
    11    23    25    1
    12    23    26    1
    13    19    20   ar
    14    20    21   ar
    15    12     1    1
    16     1     2    1
    17     2     3   ar
    18     3     4   ar
    19     4     5   ar
    20     5     6   ar
    21     6     7   ar
    22     7     8    1
    23     8     9    2
    24     8    10   am
    25    10    27    1
    26    27    28    1
    27    28    29    1
    28    29    30   ar
    29    30    31   ar
    30    31    32   ar
    31    32    33   ar
    32    33    34   ar
    33    21    16   ar
    34    10     1    1
    35    34    29   ar
    36     7     2   ar
    37    13    14    1
@<TRIPOS>MOLECULE
*****
 34 37 0 0 0
SMALL
GASTEIGER

@<TRIPOS>ATOM
      1 C         143.8881  140.0459  161.9831 C.3     1  UNL1        0.1751
      2 C         143.4076  139.4918  160.6746 C.ar    1  UNL1        0.0089
      3 C         142.6747  138.2299  160.3275 C.ar    1  UNL1       -0.0021
      4 C         142.3198  137.9373  158.8998 C.ar    1  UNL1       -0.0003
      5 C         142.6977  138.9066  157.8192 C.ar    1  UNL1        0.0001
      6 C         143.4306  140.1685  158.1663 C.ar    1  UNL1        0.0043
      7 C         143.7855  140.4611  159.5940 C.ar    1  UNL1        0.0516
      8 C         144.4996  141.6142  160.2347 C.2     1  UNL1        0.2493
      9 O         145.0531  142.8133  159.5236 O.2     1  UNL1       -0.2699
     10 N         144.5630  141.3576  161.7112 N.am    1  UNL1       -0.2658
     11 O         144.9243  139.1379  164.1858 O.2     1  UNL1       -0.2729
     12 C         143.7228  139.4013  163.3274 C.2     1  UNL1        0.2451
     13 N         142.3557  139.0202  163.8134 N.am    1  UNL1       -0.2988
     14 H         141.5671  139.1930  163.2500 H       1  UNL1        0.1498
     15 C         142.1904  138.3757  165.1577 C.3     1  UNL1        0.1164
     16 C         141.7238  139.1902  166.3276 C.ar    1  UNL1       -0.0024
     17 C         140.2798  139.5799  166.4421 C.ar    1  UNL1        0.0005
     18 C         139.8133  140.3945  167.6120 C.ar    1  UNL1        0.0369
     19 C         140.7907  140.8195  168.6676 C.ar    1  UNL1        0.1468
     20 C         142.2346  140.4298  168.5531 C.ar    1  UNL1        0.0369
     21 C         142.7012  139.6152  167.3831 C.ar    1  UNL1        0.0005
     22 O         140.3241  141.6341  169.8374 O.3     1  UNL1       -0.4045
     23 C         140.8921  143.0022  170.0731 C.3     1  UNL1        0.5753
     24 F         141.4602  144.3703  170.3087 F       1  UNL1       -0.1328
     25 F         141.7359  142.4598  171.1883 F       1  UNL1       -0.1328
     26 F         140.0483  143.5446  168.9579 F       1  UNL1       -0.1328
     27 C         145.1911  142.2551  162.7359 C.3     1  UNL1        0.0991
     28 C         144.4881  142.5177  164.0346 C.3     1  UNL1        0.0480
     29 C         143.1749  143.2427  164.0434 C.ar    1  UNL1       -0.0174
     30 C         141.9374  142.5471  164.5281 C.ar    1  UNL1        0.0165
     31 C         140.6243  143.2721  164.5369 C.ar    1  UNL1        0.0986
     32 N         140.5486  144.6927  164.0610 N.ar    1  UNL1       -0.2423
     33 C         141.7861  145.3881  163.5763 C.ar    1  UNL1        0.0986
     34 C         143.0992  144.6632  163.5675 C.ar    1  UNL1        0.0165
@<TRIPOS>BOND
     1    11    12    2
     2    12    13   am
     3    13    15    1
     4    15    16    1
     5    16    17   ar
     6    17    18   ar
     7    18    19   ar
     8    19    22    1
     9    22    23    1
    10    23    24    1
    11    23    25    1
    12    23    26    1
    13    19    20   ar
    14    20    21   ar
    15    12     1    1
    16     1     2    1
    17     2     3   ar
    18     3     4   ar
    19     4     5   ar
    20     5     6   ar
    21     6     7   ar
    22     7     8    1
    23     8     9    2
    24     8    10   am
    25    10    27    1
    26    27    28    1
    27    28    29    1
    28    29    30   ar
    29    30    31   ar
    30    31    32   ar
    31    32    33   ar
    32    33    34   ar
    33    21    16   ar
    34    10     1    1
    35    34    29   ar
    36     7     2   ar
    37    13    14    1
