@<TRIPOS>MOLECULE
*****
 37 40 0 0 0
SMALL
GASTEIGER

@<TRIPOS>ATOM
      1 N         141.4924  138.1437  158.0438 N.3     1  UNL1       -0.2689
      2 C         140.0466  138.3685  158.3738 C.3     1  UNL1        0.0741
      3 C         139.6484  138.7743  159.7619 C.3     1  UNL1        0.0369
      4 C         140.6960  138.9553  160.8200 C.3     1  UNL1        0.0747
      5 C         142.1419  138.7304  160.4901 C.3     1  UNL1        0.0369
      6 C         142.5401  138.3247  159.1020 C.3     1  UNL1        0.0741
      7 N         140.2978  139.3610  162.2081 N.am    1  UNL1       -0.2999
      8 C         140.3376  138.3584  163.3231 C.2     1  UNL1        0.2806
      9 O         140.7756  136.9500  163.0500 O.2     1  UNL1       -0.2668
     10 H         140.0104  140.2854  162.3873 H       1  UNL1        0.1498
     11 C         139.9394  138.7642  164.7112 C.ar    1  UNL1        0.2014
     12 C         138.7050  138.1854  165.3367 C.ar    1  UNL1        0.0843
     13 C         138.3068  138.5912  166.7248 C.ar    1  UNL1        0.2018
     14 O         137.0724  138.0123  167.3503 O.2     1  UNL1       -0.2864
     15 C         139.1429  139.5759  167.4873 C.ar    1  UNL1        0.0737
     16 C         138.7446  139.9816  168.8754 C.ar    1  UNL1        0.0085
     17 C         139.5807  140.9663  169.6378 C.ar    1  UNL1        0.0299
     18 C         140.8151  141.5451  169.0123 C.ar    1  UNL1        0.1432
     19 F         141.6512  142.5298  169.7748 F       1  UNL1       -0.2041
     20 C         141.2133  141.1393  167.6243 C.ar    1  UNL1        0.0672
     21 C         140.3772  140.1547  166.8618 C.ar    1  UNL1        0.1508
     22 O         140.7755  139.7489  165.4737 O.2     1  UNL1       -0.4486
     23 C         141.8906  137.7379  156.6558 C.3     1  UNL1        0.0992
     24 C         142.1814  133.3775  155.5824 C.ar    1  UNL1        0.1658
     25 C         141.1830  134.2558  154.8884 C.ar    1  UNL1        0.0390
     26 C         141.0860  135.7093  155.2462 C.ar    1  UNL1        0.0003
     27 C         141.9876  136.2845  156.2980 C.ar    1  UNL1       -0.0037
     28 C         142.9860  135.4062  156.9920 C.ar    1  UNL1        0.0299
     29 C         143.0830  133.9527  156.6342 C.ar    1  UNL1        0.1735
     30 F         144.0815  133.0745  157.3283 F       1  UNL1       -0.2010
     31 O         142.2784  131.9240  155.2246 O.3     1  UNL1       -0.4731
     32 C         143.2830  131.4671  154.2089 C.3     1  UNL1        0.2070
     33 C         144.1838  130.3071  154.5141 C.3     1  UNL1        0.0646
     34 C         144.8722  130.2218  155.8441 C.3     1  UNL1        0.0760
     35 C         142.9745  128.7084  156.7704 C.3     1  UNL1        0.0897
     36 N         144.1853  129.5626  157.0032 N.3     1  UNL1       -0.2702
     37 C         144.7093  129.7576  158.3952 C.3     1  UNL1        0.0897
@<TRIPOS>BOND
     1    35    36    1
     2    36    37    1
     3    36    34    1
     4    34    33    1
     5    33    32    1
     6    32    31    1
     7    31    24    1
     8    24    25   ar
     9    25    26   ar
    10    26    27   ar
    11    27    23    1
    12    23     1    1
    13     1     2    1
    14     2     3    1
    15     3     4    1
    16     4     7    1
    17     7     8   am
    18     8     9    2
    19     8    11    1
    20    11    12   ar
    21    12    13   ar
    22    13    14    2
    23    13    15   ar
    24    15    16   ar
    25    16    17   ar
    26    17    18   ar
    27    18    19    1
    28    18    20   ar
    29    20    21   ar
    30    21    22   ar
    31     4     5    1
    32     5     6    1
    33    27    28   ar
    34    28    29   ar
    35    29    30    1
    36    29    24   ar
    37     6     1    1
    38    22    11   ar
    39    21    15   ar
    40     7    10    1
@<TRIPOS>MOLECULE
*****
 37 40 0 0 0
SMALL
GASTEIGER

@<TRIPOS>ATOM
      1 N         141.6308  138.4724  157.8682 N.3     1  UNL1       -0.2689
      2 C         142.6702  138.9176  158.8538 C.3     1  UNL1        0.0741
      3 C         142.2702  139.2799  160.2534 C.3     1  UNL1        0.0369
      4 C         140.8309  139.1970  160.6673 C.3     1  UNL1        0.0747
      5 C         139.7914  138.7517  159.6817 C.3     1  UNL1        0.0369
      6 C         140.1914  138.3894  158.2822 C.3     1  UNL1        0.0741
      7 N         140.4309  139.5593  162.0668 N.am    1  UNL1       -0.2999
      8 C         140.4052  138.5071  163.1357 C.2     1  UNL1        0.2806
      9 O         140.7793  137.0927  162.8050 O.2     1  UNL1       -0.2668
     10 H         140.1854  140.4876  162.2839 H       1  UNL1        0.1498
     11 C         140.0052  138.8695  164.5353 C.ar    1  UNL1        0.2014
     12 C         138.7450  138.3084  165.1242 C.ar    1  UNL1        0.0843
     13 C         138.3450  138.6707  166.5238 C.ar    1  UNL1        0.2018
     14 O         137.0848  138.1095  167.1127 O.2     1  UNL1       -0.2864
     15 C         139.2053  139.5942  167.3344 C.ar    1  UNL1        0.0737
     16 C         138.8054  139.9565  168.7339 C.ar    1  UNL1        0.0085
     17 C         139.6656  140.8800  169.5445 C.ar    1  UNL1        0.0299
     18 C         140.9259  141.4411  168.9555 C.ar    1  UNL1        0.1432
     19 F         141.7862  142.3647  169.7662 F       1  UNL1       -0.2041
     20 C         141.3259  141.0788  167.5560 C.ar    1  UNL1        0.0672
     21 C         140.4656  140.1553  166.7454 C.ar    1  UNL1        0.1508
     22 O         140.8655  139.7930  165.3458 O.2     1  UNL1       -0.4486
     23 C         142.0307  138.1101  156.4686 C.3     1  UNL1        0.0992
     24 C         142.0239  133.8013  155.1706 C.ar    1  UNL1        0.1658
     25 C         142.7097  134.2000  156.4437 C.ar    1  UNL1        0.0390
     26 C         142.7119  135.6363  156.8763 C.ar    1  UNL1        0.0003
     27 C         142.0284  136.6738  156.0359 C.ar    1  UNL1       -0.0037
     28 C         141.3427  136.2751  154.7629 C.ar    1  UNL1        0.0299
     29 C         141.3405  134.8389  154.3302 C.ar    1  UNL1        0.1735
     30 F         140.6547  134.4402  153.0570 F       1  UNL1       -0.2010
     31 O         142.0217  132.3651  154.7379 O.3     1  UNL1       -0.4731
     32 C         143.2908  131.7236  154.2605 C.3     1  UNL1        0.2070
     33 C         144.0481  130.7960  155.1638 C.3     1  UNL1        0.0646
     34 C         143.5946  130.5909  156.5789 C.3     1  UNL1        0.0760
     35 C         144.8418  129.4952  158.5773 C.3     1  UNL1        0.0897
     36 N         144.5817  130.6868  157.7042 N.3     1  UNL1       -0.2702
     37 C         145.3089  131.9743  157.9563 C.3     1  UNL1        0.0897
@<TRIPOS>BOND
     1    35    36    1
     2    36    37    1
     3    36    34    1
     4    34    33    1
     5    33    32    1
     6    32    31    1
     7    31    24    1
     8    24    25   ar
     9    25    26   ar
    10    26    27   ar
    11    27    23    1
    12    23     1    1
    13     1     2    1
    14     2     3    1
    15     3     4    1
    16     4     7    1
    17     7     8   am
    18     8     9    2
    19     8    11    1
    20    11    12   ar
    21    12    13   ar
    22    13    14    2
    23    13    15   ar
    24    15    16   ar
    25    16    17   ar
    26    17    18   ar
    27    18    19    1
    28    18    20   ar
    29    20    21   ar
    30    21    22   ar
    31     4     5    1
    32     5     6    1
    33    27    28   ar
    34    28    29   ar
    35    29    30    1
    36    29    24   ar
    37     6     1    1
    38    22    11   ar
    39    21    15   ar
    40     7    10    1
@<TRIPOS>MOLECULE
*****
 37 40 0 0 0
SMALL
GASTEIGER

@<TRIPOS>ATOM
      1 N         141.8574  137.8357  162.0230 N.3     1  UNL1       -0.2689
      2 C         143.3471  138.0094  161.9975 C.3     1  UNL1        0.0741
      3 C         144.0122  138.6052  160.7922 C.3     1  UNL1        0.0369
      4 C         143.1877  139.0272  159.6125 C.3     1  UNL1        0.0747
      5 C         141.6980  138.8536  159.6379 C.3     1  UNL1        0.0369
      6 C         141.0328  138.2578  160.8431 C.3     1  UNL1        0.0741
      7 N         143.8528  139.6230  158.4072 N.am    1  UNL1       -0.2999
      8 C         144.0043  141.1109  158.2929 C.2     1  UNL1        0.2806
      9 O         143.4906  142.0031  159.3838 O.2     1  UNL1       -0.2668
     10 H         144.1900  139.0374  157.6912 H       1  UNL1        0.1498
     11 C         144.6695  141.7067  157.0876 C.ar    1  UNL1        0.2014
     12 C         143.8623  142.4926  156.0972 C.ar    1  UNL1        0.0843
     13 C         144.5275  143.0883  154.8920 C.ar    1  UNL1        0.2018
     14 O         143.7203  143.8742  153.9016 O.2     1  UNL1       -0.2864
     15 C         145.9998  142.8981  154.6770 C.ar    1  UNL1        0.0737
     16 C         146.6649  143.4939  153.4718 C.ar    1  UNL1        0.0085
     17 C         148.1372  143.3037  153.2569 C.ar    1  UNL1        0.0299
     18 C         148.9443  142.5178  154.2473 C.ar    1  UNL1        0.1432
     19 F         150.4167  142.3276  154.0324 F       1  UNL1       -0.2041
     20 C         148.2792  141.9221  155.4525 C.ar    1  UNL1        0.0672
     21 C         146.8070  142.1122  155.6674 C.ar    1  UNL1        0.1508
     22 O         146.1418  141.5165  156.8727 O.2     1  UNL1       -0.4486
     23 C         141.1922  137.2399  163.2282 C.3     1  UNL1        0.0992
     24 C         139.9900  139.8787  166.6694 C.ar    1  UNL1        0.1658
     25 C         141.4155  139.8572  166.2031 C.ar    1  UNL1        0.0390
     26 C         141.8162  138.9776  165.0560 C.ar    1  UNL1        0.0003
     27 C         140.7915  138.1195  164.3753 C.ar    1  UNL1       -0.0037
     28 C         139.3660  138.1410  164.8415 C.ar    1  UNL1        0.0299
     29 C         138.9652  139.0206  165.9886 C.ar    1  UNL1        0.1735
     30 F         137.5397  139.0420  166.4549 F       1  UNL1       -0.2010
     31 O         139.5892  140.7582  167.8164 O.3     1  UNL1       -0.4731
     32 C         139.2996  140.1548  169.1588 C.3     1  UNL1        0.2070
     33 C         140.0105  140.6621  170.3783 C.3     1  UNL1        0.0646
     34 C         140.7495  141.9665  170.3274 C.3     1  UNL1        0.0760
     35 C         143.0441  143.1530  170.6049 C.3     1  UNL1        0.0897
     36 N         142.2372  141.9787  170.1361 N.3     1  UNL1       -0.2702
     37 C         142.9180  140.8165  169.4759 C.3     1  UNL1        0.0897
@<TRIPOS>BOND
     1    35    36    1
     2    36    37    1
     3    36    34    1
     4    34    33    1
     5    33    32    1
     6    32    31    1
     7    31    24    1
     8    24    25   ar
     9    25    26   ar
    10    26    27   ar
    11    27    23    1
    12    23     1    1
    13     1     2    1
    14     2     3    1
    15     3     4    1
    16     4     7    1
    17     7     8   am
    18     8     9    2
    19     8    11    1
    20    11    12   ar
    21    12    13   ar
    22    13    14    2
    23    13    15   ar
    24    15    16   ar
    25    16    17   ar
    26    17    18   ar
    27    18    19    1
    28    18    20   ar
    29    20    21   ar
    30    21    22   ar
    31     4     5    1
    32     5     6    1
    33    27    28   ar
    34    28    29   ar
    35    29    30    1
    36    29    24   ar
    37     6     1    1
    38    22    11   ar
    39    21    15   ar
    40     7    10    1
@<TRIPOS>MOLECULE
*****
 37 40 0 0 0
SMALL
GASTEIGER

@<TRIPOS>ATOM
      1 N         139.2999  139.7120  159.5964 N.3     1  UNL1       -0.2689
      2 C         138.0792  140.2542  158.9138 C.3     1  UNL1        0.0741
      3 C         138.2024  141.4049  157.9594 C.3     1  UNL1        0.0369
      4 C         139.5462  142.0134  157.6878 C.3     1  UNL1        0.0747
      5 C         140.7669  141.4713  158.3705 C.3     1  UNL1        0.0369
      6 C         140.6437  140.3206  159.3248 C.3     1  UNL1        0.0741
      7 N         139.6694  143.1641  156.7336 N.am    1  UNL1       -0.2999
      8 C         139.6984  144.5706  157.2543 C.2     1  UNL1        0.2806
      9 O         139.6042  144.8263  158.7293 O.2     1  UNL1       -0.2668
     10 H         139.7312  142.9963  155.7654 H       1  UNL1        0.1498
     11 C         139.8215  145.7213  156.2999 C.ar    1  UNL1        0.2014
     12 C         140.6003  145.5607  155.0280 C.ar    1  UNL1        0.0843
     13 C         140.7235  146.7113  154.0737 C.ar    1  UNL1        0.2018
     14 O         141.5022  146.5507  152.8018 O.2     1  UNL1       -0.2864
     15 C         140.0679  148.0226  154.3912 C.ar    1  UNL1        0.0737
     16 C         140.1910  149.1733  153.4368 C.ar    1  UNL1        0.0085
     17 C         139.5355  150.4845  153.7544 C.ar    1  UNL1        0.0299
     18 C         138.7567  150.6450  155.0263 C.ar    1  UNL1        0.1432
     19 F         138.1011  151.9563  155.3438 F       1  UNL1       -0.2041
     20 C         138.6335  149.4944  155.9807 C.ar    1  UNL1        0.0672
     21 C         139.2891  148.1832  155.6631 C.ar    1  UNL1        0.1508
     22 O         139.1660  147.0325  156.6175 O.2     1  UNL1       -0.4486
     23 C         139.1767  138.5613  160.5507 C.3     1  UNL1        0.0992
     24 C         138.3811  139.3307  164.9125 C.ar    1  UNL1        0.1658
     25 C         138.1777  140.4263  163.9084 C.ar    1  UNL1        0.0390
     26 C         138.4430  140.1698  162.4545 C.ar    1  UNL1        0.0003
     27 C         138.9115  138.8178  162.0047 C.ar    1  UNL1       -0.0037
     28 C         139.1149  137.7222  163.0088 C.ar    1  UNL1        0.0299
     29 C         138.8497  137.9787  164.4627 C.ar    1  UNL1        0.1735
     30 F         139.0531  136.8830  165.4668 F       1  UNL1       -0.2010
     31 O         138.1159  139.5872  166.3664 O.3     1  UNL1       -0.4731
     32 C         139.2618  139.7670  167.3175 C.3     1  UNL1        0.2070
     33 C         140.5965  140.2221  166.8062 C.3     1  UNL1        0.0646
     34 C         141.8455  139.8834  167.5648 C.3     1  UNL1        0.0760
     35 C         141.9723  140.2635  170.1318 C.3     1  UNL1        0.0897
     36 N         142.2638  140.7243  168.7344 N.3     1  UNL1       -0.2702
     37 C         142.9736  142.0260  168.5066 C.3     1  UNL1        0.0897
@<TRIPOS>BOND
     1    35    36    1
     2    36    37    1
     3    36    34    1
     4    34    33    1
     5    33    32    1
     6    32    31    1
     7    31    24    1
     8    24    25   ar
     9    25    26   ar
    10    26    27   ar
    11    27    23    1
    12    23     1    1
    13     1     2    1
    14     2     3    1
    15     3     4    1
    16     4     7    1
    17     7     8   am
    18     8     9    2
    19     8    11    1
    20    11    12   ar
    21    12    13   ar
    22    13    14    2
    23    13    15   ar
    24    15    16   ar
    25    16    17   ar
    26    17    18   ar
    27    18    19    1
    28    18    20   ar
    29    20    21   ar
    30    21    22   ar
    31     4     5    1
    32     5     6    1
    33    27    28   ar
    34    28    29   ar
    35    29    30    1
    36    29    24   ar
    37     6     1    1
    38    22    11   ar
    39    21    15   ar
    40     7    10    1
@<TRIPOS>MOLECULE
*****
 37 40 0 0 0
SMALL
GASTEIGER

@<TRIPOS>ATOM
      1 N         142.0001  141.5676  161.0836 N.3     1  UNL1       -0.2689
      2 C         143.3841  141.2800  160.5817 C.3     1  UNL1        0.0741
      3 C         143.6786  139.9774  159.8986 C.3     1  UNL1        0.0369
      4 C         142.5892  138.9624  159.7175 C.3     1  UNL1        0.0747
      5 C         141.2052  139.2499  160.2193 C.3     1  UNL1        0.0369
      6 C         140.9106  140.5525  160.9024 C.3     1  UNL1        0.0741
      7 N         142.8837  137.6599  159.0345 N.am    1  UNL1       -0.2999
      8 C         142.4582  137.4458  157.6121 C.2     1  UNL1        0.2806
      9 O         141.7381  138.5343  156.8728 O.2     1  UNL1       -0.2668
     10 H         143.3563  136.9454  159.5197 H       1  UNL1        0.1498
     11 C         142.7528  136.1431  156.9291 C.ar    1  UNL1        0.2014
     12 C         142.3838  135.9518  155.4878 C.ar    1  UNL1        0.0843
     13 C         142.6784  134.6492  154.8048 C.ar    1  UNL1        0.2018
     14 O         142.3094  134.4578  153.3635 O.2     1  UNL1       -0.2864
     15 C         143.3420  133.5380  155.5630 C.ar    1  UNL1        0.0737
     16 C         143.6365  132.2354  154.8800 C.ar    1  UNL1        0.0085
     17 C         144.3001  131.1243  155.6383 C.ar    1  UNL1        0.0299
     18 C         144.6691  131.3156  157.0795 C.ar    1  UNL1        0.1432
     19 F         145.3326  130.2044  157.8378 F       1  UNL1       -0.2041
     20 C         144.3745  132.6182  157.7625 C.ar    1  UNL1        0.0672
     21 C         143.7109  133.7293  157.0043 C.ar    1  UNL1        0.1508
     22 O         143.4163  135.0320  157.6873 O.2     1  UNL1       -0.4486
     23 C         141.7055  142.8701  161.7666 C.3     1  UNL1        0.0992
     24 C         140.7705  142.9419  166.1678 C.ar    1  UNL1        0.1658
     25 C         139.6782  143.1690  165.1652 C.ar    1  UNL1        0.0390
     26 C         139.9899  143.1451  163.6981 C.ar    1  UNL1        0.0003
     27 C         141.3938  142.8940  163.2336 C.ar    1  UNL1       -0.0037
     28 C         142.4862  142.6669  164.2362 C.ar    1  UNL1        0.0299
     29 C         142.1745  142.6909  165.7033 C.ar    1  UNL1        0.1735
     30 F         143.2669  142.4638  166.7059 F       1  UNL1       -0.2010
     31 O         140.4589  142.9658  167.6349 O.3     1  UNL1       -0.4731
     32 C         140.7249  141.7541  168.4780 C.3     1  UNL1        0.2070
     33 C         140.4618  140.3842  167.9265 C.3     1  UNL1        0.0646
     34 C         139.0991  139.7714  168.0588 C.3     1  UNL1        0.0760
     35 C         137.4236  138.0545  167.0613 C.3     1  UNL1        0.0897
     36 N         138.4428  139.1379  166.8680 N.3     1  UNL1       -0.2702
     37 C         138.8058  139.5878  165.4838 C.3     1  UNL1        0.0897
@<TRIPOS>BOND
     1    35    36    1
     2    36    37    1
     3    36    34    1
     4    34    33    1
     5    33    32    1
     6    32    31    1
     7    31    24    1
     8    24    25   ar
     9    25    26   ar
    10    26    27   ar
    11    27    23    1
    12    23     1    1
    13     1     2    1
    14     2     3    1
    15     3     4    1
    16     4     7    1
    17     7     8   am
    18     8     9    2
    19     8    11    1
    20    11    12   ar
    21    12    13   ar
    22    13    14    2
    23    13    15   ar
    24    15    16   ar
    25    16    17   ar
    26    17    18   ar
    27    18    19    1
    28    18    20   ar
    29    20    21   ar
    30    21    22   ar
    31     4     5    1
    32     5     6    1
    33    27    28   ar
    34    28    29   ar
    35    29    30    1
    36    29    24   ar
    37     6     1    1
    38    22    11   ar
    39    21    15   ar
    40     7    10    1
@<TRIPOS>MOLECULE
*****
 37 40 0 0 0
SMALL
GASTEIGER

@<TRIPOS>ATOM
      1 N         142.2525  142.6182  158.7260 N.3     1  UNL1       -0.2689
      2 C         142.1828  142.2825  157.2657 C.3     1  UNL1        0.0741
      3 C         142.5608  140.9101  156.7928 C.3     1  UNL1        0.0369
      4 C         143.0084  139.8734  157.7801 C.3     1  UNL1        0.0747
      5 C         143.0782  140.2091  159.2404 C.3     1  UNL1        0.0369
      6 C         142.7002  141.5814  159.7133 C.3     1  UNL1        0.0741
      7 N         143.3864  138.5011  157.3071 N.am    1  UNL1       -0.2999
      8 C         142.3275  137.4564  157.1135 C.2     1  UNL1        0.2806
      9 O         140.8907  137.7841  157.3929 O.2     1  UNL1       -0.2668
     10 H         144.3295  138.2860  157.1237 H       1  UNL1        0.1498
     11 C         142.7056  136.0840  156.6405 C.ar    1  UNL1        0.2014
     12 C         142.3398  135.6411  155.2548 C.ar    1  UNL1        0.0843
     13 C         142.7178  134.2688  154.7818 C.ar    1  UNL1        0.2018
     14 O         142.3520  133.8258  153.3961 O.2     1  UNL1       -0.2864
     15 C         143.4616  133.3392  155.6944 C.ar    1  UNL1        0.0737
     16 C         143.8396  131.9669  155.2214 C.ar    1  UNL1        0.0085
     17 C         144.5833  131.0375  156.1340 C.ar    1  UNL1        0.0299
     18 C         144.9491  131.4804  157.5197 C.ar    1  UNL1        0.1432
     19 F         145.6930  130.5509  158.4323 F       1  UNL1       -0.2041
     20 C         144.5712  132.8527  157.9927 C.ar    1  UNL1        0.0672
     21 C         143.8274  133.7821  157.0801 C.ar    1  UNL1        0.1508
     22 O         143.4493  135.1546  157.5531 O.2     1  UNL1       -0.4486
     23 C         141.8745  143.9905  159.1990 C.3     1  UNL1        0.0992
     24 C         140.0143  144.5379  163.2598 C.ar    1  UNL1        0.1658
     25 C         139.2087  143.9514  162.1387 C.ar    1  UNL1        0.0390
     26 C         139.8287  143.7689  160.7851 C.ar    1  UNL1        0.0003
     27 C         141.2544  144.1730  160.5526 C.ar    1  UNL1       -0.0037
     28 C         142.0600  144.7595  161.6737 C.ar    1  UNL1        0.0299
     29 C         141.4399  144.9420  163.0273 C.ar    1  UNL1        0.1735
     30 F         142.2456  145.5285  164.1484 F       1  UNL1       -0.2010
     31 O         139.3942  144.7204  164.6134 O.3     1  UNL1       -0.4731
     32 C         139.5375  143.6501  165.6544 C.3     1  UNL1        0.2070
     33 C         140.0381  142.2899  165.2678 C.3     1  UNL1        0.0646
     34 C         141.3784  141.8191  165.7496 C.3     1  UNL1        0.0760
     35 C         142.7007  141.4951  163.5368 C.3     1  UNL1        0.0897
     36 N         142.6031  142.0673  164.9199 N.3     1  UNL1       -0.2702
     37 C         143.7303  142.8878  165.4734 C.3     1  UNL1        0.0897
@<TRIPOS>BOND
     1    35    36    1
     2    36    37    1
     3    36    34    1
     4    34    33    1
     5    33    32    1
     6    32    31    1
     7    31    24    1
     8    24    25   ar
     9    25    26   ar
    10    26    27   ar
    11    27    23    1
    12    23     1    1
    13     1     2    1
    14     2     3    1
    15     3     4    1
    16     4     7    1
    17     7     8   am
    18     8     9    2
    19     8    11    1
    20    11    12   ar
    21    12    13   ar
    22    13    14    2
    23    13    15   ar
    24    15    16   ar
    25    16    17   ar
    26    17    18   ar
    27    18    19    1
    28    18    20   ar
    29    20    21   ar
    30    21    22   ar
    31     4     5    1
    32     5     6    1
    33    27    28   ar
    34    28    29   ar
    35    29    30    1
    36    29    24   ar
    37     6     1    1
    38    22    11   ar
    39    21    15   ar
    40     7    10    1
@<TRIPOS>MOLECULE
*****
 37 40 0 0 0
SMALL
GASTEIGER

@<TRIPOS>ATOM
      1 N         139.1060  140.1523  159.6522 N.3     1  UNL1       -0.2689
      2 C         138.5824  141.4572  160.1746 C.3     1  UNL1        0.0741
      3 C         138.8806  142.7321  159.4424 C.3     1  UNL1        0.0369
      4 C         139.7024  142.7019  158.1880 C.3     1  UNL1        0.0747
      5 C         140.2260  141.3969  157.6656 C.3     1  UNL1        0.0369
      6 C         139.9278  140.1221  158.3977 C.3     1  UNL1        0.0741
      7 N         140.0006  143.9767  157.4559 N.am    1  UNL1       -0.2999
      8 C         139.1479  144.3910  156.2934 C.2     1  UNL1        0.2806
      9 O         137.9971  143.5306  155.8630 O.2     1  UNL1       -0.2668
     10 H         140.7559  144.5414  157.7384 H       1  UNL1        0.1498
     11 C         139.4462  145.6659  155.5613 C.ar    1  UNL1        0.2014
     12 C         140.3503  145.6496  154.3646 C.ar    1  UNL1        0.0843
     13 C         140.6486  146.9244  153.6325 C.ar    1  UNL1        0.2018
     14 O         141.5527  146.9081  152.4357 O.2     1  UNL1       -0.2864
     15 C         140.0426  148.2155  154.0972 C.ar    1  UNL1        0.0737
     16 C         140.3409  149.4903  153.3651 C.ar    1  UNL1        0.0085
     17 C         139.7350  150.7813  153.8298 C.ar    1  UNL1        0.0299
     18 C         138.8309  150.7976  155.0266 C.ar    1  UNL1        0.1432
     19 F         138.2250  152.0888  155.4913 F       1  UNL1       -0.2041
     20 C         138.5326  149.5229  155.7587 C.ar    1  UNL1        0.0672
     21 C         139.1385  148.2318  155.2940 C.ar    1  UNL1        0.1508
     22 O         138.8403  146.9570  156.0260 O.2     1  UNL1       -0.4486
     23 C         138.8078  138.8775  160.3843 C.3     1  UNL1        0.0992
     24 C         141.2245  137.7454  164.0075 C.ar    1  UNL1        0.1658
     25 C         141.9170  138.1057  162.7267 C.ar    1  UNL1        0.0390
     26 C         141.1115  138.4831  161.5189 C.ar    1  UNL1        0.0003
     27 C         139.6134  138.5001  161.5920 C.ar    1  UNL1       -0.0037
     28 C         138.9209  138.1399  162.8728 C.ar    1  UNL1        0.0299
     29 C         139.7264  137.7625  164.0806 C.ar    1  UNL1        0.1735
     30 F         139.0338  137.4022  165.3615 F       1  UNL1       -0.2010
     31 O         142.0301  137.3681  165.2153 O.3     1  UNL1       -0.4731
     32 C         143.1414  138.2598  165.6841 C.3     1  UNL1        0.2070
     33 C         142.9241  139.1800  166.8485 C.3     1  UNL1        0.0646
     34 C         141.6999  140.0453  166.9023 C.3     1  UNL1        0.0760
     35 C         139.2614  139.8742  167.7822 C.3     1  UNL1        0.0897
     36 N         140.7376  139.9130  168.0453 N.3     1  UNL1       -0.2702
     37 C         141.2516  139.8194  169.4515 C.3     1  UNL1        0.0897
@<TRIPOS>BOND
     1    35    36    1
     2    36    37    1
     3    36    34    1
     4    34    33    1
     5    33    32    1
     6    32    31    1
     7    31    24    1
     8    24    25   ar
     9    25    26   ar
    10    26    27   ar
    11    27    23    1
    12    23     1    1
    13     1     2    1
    14     2     3    1
    15     3     4    1
    16     4     7    1
    17     7     8   am
    18     8     9    2
    19     8    11    1
    20    11    12   ar
    21    12    13   ar
    22    13    14    2
    23    13    15   ar
    24    15    16   ar
    25    16    17   ar
    26    17    18   ar
    27    18    19    1
    28    18    20   ar
    29    20    21   ar
    30    21    22   ar
    31     4     5    1
    32     5     6    1
    33    27    28   ar
    34    28    29   ar
    35    29    30    1
    36    29    24   ar
    37     6     1    1
    38    22    11   ar
    39    21    15   ar
    40     7    10    1
@<TRIPOS>MOLECULE
*****
 37 40 0 0 0
SMALL
GASTEIGER

@<TRIPOS>ATOM
      1 N         142.5493  141.9535  161.4864 N.3     1  UNL1       -0.2689
      2 C         141.4442  140.9401  161.4435 C.3     1  UNL1        0.0741
      3 C         141.5811  139.7170  160.5859 C.3     1  UNL1        0.0369
      4 C         142.8230  139.5075  159.7711 C.3     1  UNL1        0.0747
      5 C         143.9280  140.5209  159.8140 C.3     1  UNL1        0.0369
      6 C         143.7912  141.7439  160.6716 C.3     1  UNL1        0.0741
      7 N         142.9598  138.2845  158.9135 N.am    1  UNL1       -0.2999
      8 C         141.9983  138.0471  157.7869 C.2     1  UNL1        0.2806
      9 O         140.9001  139.0327  157.5179 O.2     1  UNL1       -0.2668
     10 H         143.6806  137.6376  159.0901 H       1  UNL1        0.1498
     11 C         142.1352  136.8240  156.9293 C.ar    1  UNL1        0.2014
     12 C         141.3260  136.6946  155.6729 C.ar    1  UNL1        0.0843
     13 C         141.4629  135.4717  154.8153 C.ar    1  UNL1        0.2018
     14 O         140.6537  135.3423  153.5589 O.2     1  UNL1       -0.2864
     15 C         142.4089  134.3779  155.2141 C.ar    1  UNL1        0.0737
     16 C         142.5457  133.1550  154.3564 C.ar    1  UNL1        0.0085
     17 C         143.4916  132.0613  154.7552 C.ar    1  UNL1        0.0299
     18 C         144.3008  132.1907  156.0116 C.ar    1  UNL1        0.1432
     19 F         145.2468  131.0970  156.4104 F       1  UNL1       -0.2041
     20 C         144.1640  133.4137  156.8692 C.ar    1  UNL1        0.0672
     21 C         143.2180  134.5073  156.4705 C.ar    1  UNL1        0.1508
     22 O         143.0812  135.7304  157.3281 O.2     1  UNL1       -0.4486
     23 C         142.4125  143.1765  162.3440 C.3     1  UNL1        0.0992
     24 C         140.8792  142.8091  166.5588 C.ar    1  UNL1        0.1658
     25 C         139.9899  143.3568  165.4822 C.ar    1  UNL1        0.0390
     26 C         140.5009  143.4792  164.0773 C.ar    1  UNL1        0.0003
     27 C         141.9014  143.0540  163.7489 C.ar    1  UNL1       -0.0037
     28 C         142.7908  142.5063  164.8255 C.ar    1  UNL1        0.0299
     29 C         142.2797  142.3838  166.2304 C.ar    1  UNL1        0.1735
     30 F         143.1691  141.8361  167.3070 F       1  UNL1       -0.2010
     31 O         140.3681  142.6866  167.9637 O.3     1  UNL1       -0.4731
     32 C         140.0411  141.3357  168.5277 C.3     1  UNL1        0.2070
     33 C         139.6618  141.1980  169.9724 C.3     1  UNL1        0.0646
     34 C         140.7231  141.2231  171.0322 C.3     1  UNL1        0.0760
     35 C         142.6793  142.8627  170.5479 C.3     1  UNL1        0.0897
     36 N         142.1550  141.4615  170.6542 N.3     1  UNL1       -0.2702
     37 C         143.0625  140.2984  170.3824 C.3     1  UNL1        0.0897
@<TRIPOS>BOND
     1    35    36    1
     2    36    37    1
     3    36    34    1
     4    34    33    1
     5    33    32    1
     6    32    31    1
     7    31    24    1
     8    24    25   ar
     9    25    26   ar
    10    26    27   ar
    11    27    23    1
    12    23     1    1
    13     1     2    1
    14     2     3    1
    15     3     4    1
    16     4     7    1
    17     7     8   am
    18     8     9    2
    19     8    11    1
    20    11    12   ar
    21    12    13   ar
    22    13    14    2
    23    13    15   ar
    24    15    16   ar
    25    16    17   ar
    26    17    18   ar
    27    18    19    1
    28    18    20   ar
    29    20    21   ar
    30    21    22   ar
    31     4     5    1
    32     5     6    1
    33    27    28   ar
    34    28    29   ar
    35    29    30    1
    36    29    24   ar
    37     6     1    1
    38    22    11   ar
    39    21    15   ar
    40     7    10    1
@<TRIPOS>MOLECULE
*****
 37 40 0 0 0
SMALL
GASTEIGER

@<TRIPOS>ATOM
      1 N         141.3471  142.5943  164.9140 N.3     1  UNL1       -0.2689
      2 C         140.3261  142.2462  163.8718 C.3     1  UNL1        0.0741
      3 C         140.7411  142.0869  162.4391 C.3     1  UNL1        0.0369
      4 C         142.1770  142.2757  162.0488 C.3     1  UNL1        0.0747
      5 C         143.1980  142.6238  163.0910 C.3     1  UNL1        0.0369
      6 C         142.7831  142.7831  164.5237 C.3     1  UNL1        0.0741
      7 N         142.5920  142.1164  160.6162 N.am    1  UNL1       -0.2999
      8 C         143.5052  140.9942  160.2202 C.2     1  UNL1        0.2806
      9 O         144.0034  140.0314  161.2568 O.2     1  UNL1       -0.2668
     10 H         142.2649  142.7483  159.9358 H       1  UNL1        0.1498
     11 C         143.9201  140.8349  158.7875 C.ar    1  UNL1        0.2014
     12 C         143.2016  139.8599  157.9025 C.ar    1  UNL1        0.0843
     13 C         143.6164  139.7006  156.4699 C.ar    1  UNL1        0.2018
     14 O         142.8980  138.7256  155.5850 O.2     1  UNL1       -0.2864
     15 C         144.7499  140.5164  155.9221 C.ar    1  UNL1        0.0737
     16 C         145.1647  140.3571  154.4895 C.ar    1  UNL1        0.0085
     17 C         146.2981  141.1728  153.9418 C.ar    1  UNL1        0.0299
     18 C         147.0166  142.1478  154.8267 C.ar    1  UNL1        0.1432
     19 F         148.1500  142.9636  154.2789 F       1  UNL1       -0.2041
     20 C         146.6017  142.3071  156.2593 C.ar    1  UNL1        0.0672
     21 C         145.4684  141.4914  156.8070 C.ar    1  UNL1        0.1508
     22 O         145.0534  141.6507  158.2397 O.2     1  UNL1       -0.4486
     23 C         140.9322  142.7536  166.3466 C.3     1  UNL1        0.0992
     24 C         142.7418  140.1247  169.5190 C.ar    1  UNL1        0.1658
     25 C         141.5823  139.6297  168.7063 C.ar    1  UNL1        0.0390
     26 C         140.9791  140.5060  167.6489 C.ar    1  UNL1        0.0003
     27 C         141.5354  141.8773  167.4041 C.ar    1  UNL1       -0.0037
     28 C         142.6949  142.3723  168.2167 C.ar    1  UNL1        0.0299
     29 C         143.2981  141.4960  169.2742 C.ar    1  UNL1        0.1735
     30 F         144.4577  141.9911  170.0869 F       1  UNL1       -0.2010
     31 O         143.3451  139.2484  170.5764 O.3     1  UNL1       -0.4731
     32 C         143.0716  137.7735  170.5741 C.3     1  UNL1        0.2070
     33 C         144.2121  136.7992  170.5788 C.3     1  UNL1        0.0646
     34 C         144.3698  135.8346  171.7166 C.3     1  UNL1        0.0760
     35 C         145.9534  134.2230  172.9992 C.3     1  UNL1        0.0897
     36 N         145.7391  135.4873  172.2211 N.3     1  UNL1       -0.2702
     37 C         146.8941  136.4045  171.9474 C.3     1  UNL1        0.0897
@<TRIPOS>BOND
     1    35    36    1
     2    36    37    1
     3    36    34    1
     4    34    33    1
     5    33    32    1
     6    32    31    1
     7    31    24    1
     8    24    25   ar
     9    25    26   ar
    10    26    27   ar
    11    27    23    1
    12    23     1    1
    13     1     2    1
    14     2     3    1
    15     3     4    1
    16     4     7    1
    17     7     8   am
    18     8     9    2
    19     8    11    1
    20    11    12   ar
    21    12    13   ar
    22    13    14    2
    23    13    15   ar
    24    15    16   ar
    25    16    17   ar
    26    17    18   ar
    27    18    19    1
    28    18    20   ar
    29    20    21   ar
    30    21    22   ar
    31     4     5    1
    32     5     6    1
    33    27    28   ar
    34    28    29   ar
    35    29    30    1
    36    29    24   ar
    37     6     1    1
    38    22    11   ar
    39    21    15   ar
    40     7    10    1
