@<TRIPOS>MOLECULE
*****
 38 42 0 0 0
SMALL
GASTEIGER

@<TRIPOS>ATOM
      1 O         142.2171  139.1893  160.2662 O.2     1  UNL1       -0.2733
      2 C         141.0483  138.6241  159.5147 C.2     1  UNL1        0.2425
      3 N         139.7698  138.3173  160.2368 N.am    1  UNL1       -0.3018
      4 H         139.0028  137.9464  159.7436 H       1  UNL1        0.1495
      5 C         139.6601  138.5756  161.7103 C.3     1  UNL1        0.1035
      6 C         139.9726  137.7923  162.9506 C.3     1  UNL1        0.0933
      7 N         139.5049  138.9411  163.7942 N.3     1  UNL1       -0.2711
      8 C         139.1924  139.7245  162.5538 C.3     1  UNL1        0.0933
      9 C         139.3952  139.1994  165.2676 C.3     1  UNL1        0.0578
     10 C         138.1386  138.8352  166.0014 C.3     1  UNL1        0.0187
     11 C         138.0289  139.0936  167.4749 C.3     1  UNL1        0.0331
     12 C         139.1756  139.7162  168.2147 C.3     1  UNL1        0.1140
     13 O         138.1996  139.5479  169.3412 O.3     1  UNL1       -0.3821
     14 C         140.4322  140.0805  167.4808 C.3     1  UNL1        0.0331
     15 C         140.5420  139.8221  166.0074 C.3     1  UNL1        0.0187
     16 H         137.3842  139.1442  169.0049 H       1  UNL1        0.2107
     17 C         139.9835  140.2804  169.3456 C.ar    1  UNL1        0.0518
     18 C         139.5341  141.3403  170.3073 C.ar    1  UNL1        0.1039
     19 N         140.6555  141.5986  171.2695 N.ar    1  UNL1       -0.2350
     20 C         141.7978  140.6984  170.9025 C.ar    1  UNL1        0.1343
     21 S         141.3825  139.8837  169.7135 S.2     1  UNL1       -0.0665
     22 C         141.1581  138.3658  158.0413 C.3     1  UNL1        0.1736
     23 N         142.0292  137.2533  157.5377 N.pl3   1  UNL1       -0.3252
     24 H         142.8466  137.0076  158.0282 H       1  UNL1        0.1473
     25 C         141.6548  136.5152  156.2866 C.ar    1  UNL1        0.0479
     26 C         140.6366  137.0949  155.3500 C.ar    1  UNL1        0.0350
     27 C         140.2623  136.3569  154.0990 C.ar    1  UNL1        0.1001
     28 N         140.9061  135.0391  153.7846 N.ar    1  UNL1       -0.2438
     29 C         141.9243  134.4593  154.7212 C.ar    1  UNL1        0.0825
     30 C         142.5681  133.1415  154.4067 C.ar    1  UNL1        0.0191
     31 C         143.5863  132.5618  155.3433 C.ar    1  UNL1        0.0054
     32 C         143.9607  133.2999  156.5944 C.ar    1  UNL1        0.0716
     33 C         143.3169  134.6177  156.9088 C.ar    1  UNL1        0.0066
     34 C         142.2986  135.1974  155.9722 C.ar    1  UNL1        0.0308
     35 C         144.9789  132.7202  157.5309 C.3     1  UNL1        0.4186
     36 F         145.9971  132.1405  158.4676 F       1  UNL1       -0.1659
     37 F         145.4879  131.8368  156.4308 F       1  UNL1       -0.1659
     38 F         144.4699  133.6036  158.6311 F       1  UNL1       -0.1659
@<TRIPOS>BOND
     1     1     2    2
     2     2    22    1
     3    22    23    1
     4    23    25    1
     5    25    26   ar
     6    26    27   ar
     7    27    28   ar
     8    28    29   ar
     9    29    30   ar
    10    30    31   ar
    11    31    32   ar
    12    32    35    1
    13    35    36    1
    14    35    37    1
    15    35    38    1
    16    32    33   ar
    17    33    34   ar
    18     2     3   am
    19     3     5    1
    20     5     6    1
    21     6     7    1
    22     9     7    1
    23     9    10    1
    24    10    11    1
    25    11    12    1
    26    12    13    1
    27    12    17    1
    28    17    18   ar
    29    18    19   ar
    30    19    20   ar
    31    20    21   ar
    32    12    14    1
    33    14    15    1
    34     7     8    1
    35    34    25   ar
    36     8     5    1
    37    34    29   ar
    38    15     9    1
    39    21    17   ar
    40    23    24    1
    41     3     4    1
    42    13    16    1
@<TRIPOS>MOLECULE
*****
 38 42 0 0 0
SMALL
GASTEIGER

@<TRIPOS>ATOM
      1 O         144.0464  138.7274  160.3987 O.2     1  UNL1       -0.2733
      2 C         142.7405  138.2700  159.8195 C.2     1  UNL1        0.2425
      3 N         141.5249  138.1744  160.6932 N.am    1  UNL1       -0.3018
      4 H         140.6678  137.8742  160.3131 H       1  UNL1        0.1495
      5 C         141.6154  138.5362  162.1462 C.3     1  UNL1        0.1035
      6 C         141.9085  139.7934  162.9099 C.3     1  UNL1        0.0933
      7 N         141.7432  139.0477  164.2009 N.3     1  UNL1       -0.2711
      8 C         141.4500  137.7905  163.4371 C.3     1  UNL1        0.0933
      9 C         141.8336  139.4094  165.6538 C.3     1  UNL1        0.0578
     10 C         142.9017  138.8007  166.5132 C.3     1  UNL1        0.0187
     11 C         142.9921  139.1624  167.9662 C.3     1  UNL1        0.0331
     12 C         142.0144  140.1328  168.5597 C.3     1  UNL1        0.1140
     13 O         142.8430  139.8238  169.7713 O.3     1  UNL1       -0.3821
     14 C         140.9463  140.7416  167.7003 C.3     1  UNL1        0.0331
     15 C         140.8559  140.3799  166.2474 C.3     1  UNL1        0.0187
     16 H         143.5378  139.1896  169.5348 H       1  UNL1        0.2107
     17 C         141.3245  140.9959  169.5740 C.ar    1  UNL1        0.0518
     18 C         141.5311  140.9483  171.0590 C.ar    1  UNL1        0.1039
     19 N         140.6410  141.9812  171.6842 N.ar    1  UNL1       -0.2350
     20 C         139.8843  142.6673  170.5856 C.ar    1  UNL1        0.1343
     21 S         140.3067  142.0584  169.2815 S.2     1  UNL1       -0.0665
     22 C         142.6501  137.9083  158.3666 C.3     1  UNL1        0.1736
     23 N         143.1114  136.5596  157.8994 N.pl3   1  UNL1       -0.3252
     24 H         143.6487  135.9894  158.4955 H       1  UNL1        0.1473
     25 C         142.7540  136.0797  156.5238 C.ar    1  UNL1        0.0479
     26 C         142.0808  137.0081  155.5570 C.ar    1  UNL1        0.0350
     27 C         141.7234  136.5282  154.1815 C.ar    1  UNL1        0.1001
     28 N         142.0392  135.1199  153.7729 N.ar    1  UNL1       -0.2438
     29 C         142.7123  134.1915  154.7398 C.ar    1  UNL1        0.0825
     30 C         143.0280  132.7832  154.3312 C.ar    1  UNL1        0.0191
     31 C         143.7012  131.8548  155.2981 C.ar    1  UNL1        0.0054
     32 C         144.0586  132.3346  156.6736 C.ar    1  UNL1        0.0716
     33 C         143.7429  133.7430  157.0822 C.ar    1  UNL1        0.0066
     34 C         143.0697  134.6714  156.1153 C.ar    1  UNL1        0.0308
     35 C         144.7317  131.4062  157.6405 C.3     1  UNL1        0.4186
     36 F         145.4049  130.4778  158.6075 F       1  UNL1       -0.1659
     37 F         144.0860  130.2335  156.9640 F       1  UNL1       -0.1659
     38 F         145.3775  132.5789  158.3170 F       1  UNL1       -0.1659
@<TRIPOS>BOND
     1     1     2    2
     2     2    22    1
     3    22    23    1
     4    23    25    1
     5    25    26   ar
     6    26    27   ar
     7    27    28   ar
     8    28    29   ar
     9    29    30   ar
    10    30    31   ar
    11    31    32   ar
    12    32    35    1
    13    35    36    1
    14    35    37    1
    15    35    38    1
    16    32    33   ar
    17    33    34   ar
    18     2     3   am
    19     3     5    1
    20     5     6    1
    21     6     7    1
    22     9     7    1
    23     9    10    1
    24    10    11    1
    25    11    12    1
    26    12    13    1
    27    12    17    1
    28    17    18   ar
    29    18    19   ar
    30    19    20   ar
    31    20    21   ar
    32    12    14    1
    33    14    15    1
    34     7     8    1
    35    34    25   ar
    36     8     5    1
    37    34    29   ar
    38    15     9    1
    39    21    17   ar
    40    23    24    1
    41     3     4    1
    42    13    16    1
@<TRIPOS>MOLECULE
*****
 38 42 0 0 0
SMALL
GASTEIGER

@<TRIPOS>ATOM
      1 O         144.1172  139.5712  159.1645 O.2     1  UNL1       -0.2733
      2 C         143.6571  140.4189  158.0156 C.2     1  UNL1        0.2425
      3 N         143.1083  139.7719  156.7787 N.am    1  UNL1       -0.3018
      4 H         142.8063  140.3282  156.0247 H       1  UNL1        0.1495
      5 C         143.0195  138.2770  156.6906 C.3     1  UNL1        0.1035
      6 C         142.2263  137.2181  157.3972 C.3     1  UNL1        0.0933
      7 N         142.8940  136.1631  156.5659 N.3     1  UNL1       -0.2711
      8 C         143.6872  137.2221  155.8592 C.3     1  UNL1        0.0933
      9 C         142.8053  134.6683  156.4777 C.3     1  UNL1        0.0578
     10 C         141.8065  134.0293  155.5590 C.3     1  UNL1        0.0187
     11 C         141.7178  132.5344  155.4708 C.3     1  UNL1        0.0331
     12 C         142.6277  131.6788  156.3014 C.3     1  UNL1        0.1140
     13 O         141.8514  130.6141  155.5846 O.3     1  UNL1       -0.3821
     14 C         143.6265  132.3180  157.2201 C.3     1  UNL1        0.0331
     15 C         143.7152  133.8127  157.3083 C.3     1  UNL1        0.0187
     16 H         141.2041  131.0288  154.9930 H       1  UNL1        0.2107
     17 C         143.2681  130.4534  156.8830 C.ar    1  UNL1        0.0518
     18 C         142.8441  129.0357  156.6369 C.ar    1  UNL1        0.1039
     19 N         143.7588  128.1367  157.4147 N.ar    1  UNL1       -0.2350
     20 C         144.7482  128.9988  158.1415 C.ar    1  UNL1        0.1343
     21 S         144.4448  130.4305  157.8129 S.2     1  UNL1       -0.0665
     22 C         143.7459  141.9137  158.1038 C.3     1  UNL1        0.1736
     23 N         143.5905  142.5973  159.4299 N.pl3   1  UNL1       -0.3252
     24 H         144.2802  142.4880  160.1239 H       1  UNL1        0.1473
     25 C         142.3842  143.4475  159.6985 C.ar    1  UNL1        0.0479
     26 C         141.3791  143.6882  158.6115 C.ar    1  UNL1        0.0350
     27 C         140.1728  144.5383  158.8802 C.ar    1  UNL1        0.1001
     28 N         139.9717  145.1477  160.2359 N.ar    1  UNL1       -0.2438
     29 C         140.9768  144.9071  161.3230 C.ar    1  UNL1        0.0825
     30 C         140.7757  145.5165  162.6788 C.ar    1  UNL1        0.0191
     31 C         141.7808  145.2758  163.7659 C.ar    1  UNL1        0.0054
     32 C         142.9871  144.4257  163.4972 C.ar    1  UNL1        0.0716
     33 C         143.1882  143.8162  162.1414 C.ar    1  UNL1        0.0066
     34 C         142.1831  144.0569  161.0543 C.ar    1  UNL1        0.0308
     35 C         143.9922  144.1850  164.5843 C.3     1  UNL1        0.4186
     36 F         144.9974  143.9443  165.6714 F       1  UNL1       -0.1659
     37 F         144.1543  145.6655  164.7622 F       1  UNL1       -0.1659
     38 F         143.8301  142.7045  164.4064 F       1  UNL1       -0.1659
@<TRIPOS>BOND
     1     1     2    2
     2     2    22    1
     3    22    23    1
     4    23    25    1
     5    25    26   ar
     6    26    27   ar
     7    27    28   ar
     8    28    29   ar
     9    29    30   ar
    10    30    31   ar
    11    31    32   ar
    12    32    35    1
    13    35    36    1
    14    35    37    1
    15    35    38    1
    16    32    33   ar
    17    33    34   ar
    18     2     3   am
    19     3     5    1
    20     5     6    1
    21     6     7    1
    22     9     7    1
    23     9    10    1
    24    10    11    1
    25    11    12    1
    26    12    13    1
    27    12    17    1
    28    17    18   ar
    29    18    19   ar
    30    19    20   ar
    31    20    21   ar
    32    12    14    1
    33    14    15    1
    34     7     8    1
    35    34    25   ar
    36     8     5    1
    37    34    29   ar
    38    15     9    1
    39    21    17   ar
    40    23    24    1
    41     3     4    1
    42    13    16    1
@<TRIPOS>MOLECULE
*****
 38 42 0 0 0
SMALL
GASTEIGER

@<TRIPOS>ATOM
      1 O         141.9513  138.9172  159.3824 O.2     1  UNL1       -0.2733
      2 C         140.5643  138.4232  159.0955 C.2     1  UNL1        0.2425
      3 N         139.5984  138.2040  160.2220 N.am    1  UNL1       -0.3018
      4 H         138.6880  137.8798  160.0338 H       1  UNL1        0.1495
      5 C         140.0195  138.4787  161.6353 C.3     1  UNL1        0.1035
      6 C         140.1188  137.6628  162.8900 C.3     1  UNL1        0.0933
      7 N         140.6151  138.8672  163.6339 N.3     1  UNL1       -0.2711
      8 C         140.5158  139.6830  162.3791 C.3     1  UNL1        0.0933
      9 C         141.0362  139.1419  165.0471 C.3     1  UNL1        0.0578
     10 C         142.4013  138.7334  165.5157 C.3     1  UNL1        0.0187
     11 C         142.8225  139.0081  166.9289 C.3     1  UNL1        0.0331
     12 C         141.8785  139.6913  167.8735 C.3     1  UNL1        0.1140
     13 O         143.0581  139.4966  168.7794 O.3     1  UNL1       -0.3821
     14 C         140.5134  140.0998  167.4048 C.3     1  UNL1        0.0331
     15 C         140.0923  139.8251  165.9916 C.3     1  UNL1        0.0187
     16 H         143.7699  139.0526  168.2925 H       1  UNL1        0.2107
     17 C         141.3443  140.3068  169.1327 C.ar    1  UNL1        0.0518
     18 C         139.9249  140.2401  169.6134 C.ar    1  UNL1        0.1039
     19 N         139.8389  140.9893  170.9100 N.ar    1  UNL1       -0.2350
     20 C         141.2052  141.5190  171.2307 C.ar    1  UNL1        0.1343
     21 S         142.1355  141.0973  170.1323 S.2     1  UNL1       -0.0665
     22 C         140.1432  138.1486  157.6823 C.3     1  UNL1        0.1736
     23 N         141.1774  138.0138  156.6043 N.pl3   1  UNL1       -0.3252
     24 H         142.0333  138.4944  156.6804 H       1  UNL1        0.1473
     25 C         140.9077  137.1468  155.4103 C.ar    1  UNL1        0.0479
     26 C         139.9700  137.6173  154.3382 C.ar    1  UNL1        0.0350
     27 C         139.7003  136.7503  153.1443 C.ar    1  UNL1        0.1001
     28 N         140.3682  135.4127  153.0225 N.ar    1  UNL1       -0.2438
     29 C         141.3059  134.9422  154.0946 C.ar    1  UNL1        0.0825
     30 C         141.9738  133.6047  153.9727 C.ar    1  UNL1        0.0191
     31 C         142.9115  133.1342  155.0448 C.ar    1  UNL1        0.0054
     32 C         143.1812  134.0012  156.2388 C.ar    1  UNL1        0.0716
     33 C         142.5133  135.3388  156.3606 C.ar    1  UNL1        0.0066
     34 C         141.5756  135.8093  155.2885 C.ar    1  UNL1        0.0308
     35 C         144.1189  133.5307  157.3109 C.3     1  UNL1        0.4186
     36 F         145.0566  133.0601  158.3830 F       1  UNL1       -0.1659
     37 F         143.4596  134.4536  158.2925 F       1  UNL1       -0.1659
     38 F         144.7781  132.6078  156.3292 F       1  UNL1       -0.1659
@<TRIPOS>BOND
     1     1     2    2
     2     2    22    1
     3    22    23    1
     4    23    25    1
     5    25    26   ar
     6    26    27   ar
     7    27    28   ar
     8    28    29   ar
     9    29    30   ar
    10    30    31   ar
    11    31    32   ar
    12    32    35    1
    13    35    36    1
    14    35    37    1
    15    35    38    1
    16    32    33   ar
    17    33    34   ar
    18     2     3   am
    19     3     5    1
    20     5     6    1
    21     6     7    1
    22     9     7    1
    23     9    10    1
    24    10    11    1
    25    11    12    1
    26    12    13    1
    27    12    17    1
    28    17    18   ar
    29    18    19   ar
    30    19    20   ar
    31    20    21   ar
    32    12    14    1
    33    14    15    1
    34     7     8    1
    35    34    25   ar
    36     8     5    1
    37    34    29   ar
    38    15     9    1
    39    21    17   ar
    40    23    24    1
    41     3     4    1
    42    13    16    1
@<TRIPOS>MOLECULE
*****
 38 42 0 0 0
SMALL
GASTEIGER

@<TRIPOS>ATOM
      1 O         142.9678  142.4884  162.8838 O.2     1  UNL1       -0.2733
      2 C         142.7907  143.8216  162.2194 C.2     1  UNL1        0.2425
      3 N         142.7148  143.9100  160.7239 N.am    1  UNL1       -0.3018
      4 H         142.5985  144.7850  160.2878 H       1  UNL1        0.1495
      5 C         142.8160  142.6653  159.8929 C.3     1  UNL1        0.1035
      6 C         143.8692  141.6205  159.6717 C.3     1  UNL1        0.0933
      7 N         142.9591  140.9051  158.7177 N.3     1  UNL1       -0.2711
      8 C         141.9059  141.9500  158.9390 C.3     1  UNL1        0.0933
      9 C         143.0603  139.6604  157.8867 C.3     1  UNL1        0.0578
     10 C         143.6912  139.7158  156.5270 C.3     1  UNL1        0.0187
     11 C         143.7924  138.4711  155.6959 C.3     1  UNL1        0.0331
     12 C         143.2628  137.1711  156.2246 C.3     1  UNL1        0.1140
     13 O         143.7710  136.7206  154.8872 O.3     1  UNL1       -0.3821
     14 C         142.6319  137.1158  157.5844 C.3     1  UNL1        0.0331
     15 C         142.5307  138.3605  158.4154 C.3     1  UNL1        0.0187
     16 H         144.1538  137.4768  154.4154 H       1  UNL1        0.2107
     17 C         142.9096  135.7148  156.2889 C.ar    1  UNL1        0.0518
     18 C         143.3618  134.7433  157.3386 C.ar    1  UNL1        0.1039
     19 N         142.7739  133.4022  157.0132 N.ar    1  UNL1       -0.2350
     20 C         141.9583  133.5449  155.7623 C.ar    1  UNL1        0.1343
     21 S         142.0422  134.9740  155.3148 S.2     1  UNL1       -0.0665
     22 C         142.6894  145.0662  163.0504 C.3     1  UNL1        0.1736
     23 N         141.5202  145.2612  163.9696 N.pl3   1  UNL1       -0.3252
     24 H         141.5531  145.9549  164.6675 H       1  UNL1        0.1473
     25 C         140.3010  144.3993  163.8256 C.ar    1  UNL1        0.0479
     26 C         139.2537  144.7455  162.8091 C.ar    1  UNL1        0.0350
     27 C         138.0345  143.8836  162.6651 C.ar    1  UNL1        0.1001
     28 N         137.8627  142.6756  163.5375 N.ar    1  UNL1       -0.2438
     29 C         138.9100  142.3295  164.5540 C.ar    1  UNL1        0.0825
     30 C         138.7381  141.1215  165.4265 C.ar    1  UNL1        0.0191
     31 C         139.7855  140.7753  166.4429 C.ar    1  UNL1        0.0054
     32 C         141.0047  141.6372  166.5870 C.ar    1  UNL1        0.0716
     33 C         141.1766  142.8452  165.7146 C.ar    1  UNL1        0.0066
     34 C         140.1292  143.1913  164.6980 C.ar    1  UNL1        0.0308
     35 C         142.0520  141.2911  167.6035 C.3     1  UNL1        0.4186
     36 F         143.0994  140.9449  168.6200 F       1  UNL1       -0.1659
     37 F         142.8410  142.5023  167.2030 F       1  UNL1       -0.1659
     38 F         141.2630  140.0799  168.0040 F       1  UNL1       -0.1659
@<TRIPOS>BOND
     1     1     2    2
     2     2    22    1
     3    22    23    1
     4    23    25    1
     5    25    26   ar
     6    26    27   ar
     7    27    28   ar
     8    28    29   ar
     9    29    30   ar
    10    30    31   ar
    11    31    32   ar
    12    32    35    1
    13    35    36    1
    14    35    37    1
    15    35    38    1
    16    32    33   ar
    17    33    34   ar
    18     2     3   am
    19     3     5    1
    20     5     6    1
    21     6     7    1
    22     9     7    1
    23     9    10    1
    24    10    11    1
    25    11    12    1
    26    12    13    1
    27    12    17    1
    28    17    18   ar
    29    18    19   ar
    30    19    20   ar
    31    20    21   ar
    32    12    14    1
    33    14    15    1
    34     7     8    1
    35    34    25   ar
    36     8     5    1
    37    34    29   ar
    38    15     9    1
    39    21    17   ar
    40    23    24    1
    41     3     4    1
    42    13    16    1
@<TRIPOS>MOLECULE
*****
 38 42 0 0 0
SMALL
GASTEIGER

@<TRIPOS>ATOM
      1 O         143.6517  144.2478  163.7967 O.2     1  UNL1       -0.2733
      2 C         143.1051  142.9344  164.2725 C.2     1  UNL1        0.2425
      3 N         142.0872  142.2030  163.4486 N.am    1  UNL1       -0.3018
      4 H         141.7284  141.3410  163.7608 H       1  UNL1        0.1495
      5 C         141.6158  142.7850  162.1489 C.3     1  UNL1        0.1035
      6 C         140.4141  143.5689  161.7117 C.3     1  UNL1        0.0933
      7 N         140.9492  143.6081  160.3109 N.3     1  UNL1       -0.2711
      8 C         142.1510  142.8242  160.7482 C.3     1  UNL1        0.0933
      9 C         140.4779  144.1900  159.0112 C.3     1  UNL1        0.0578
     10 C         139.6808  143.3494  158.0584 C.3     1  UNL1        0.0187
     11 C         139.2094  143.9314  156.7586 C.3     1  UNL1        0.0331
     12 C         139.5351  145.3540  156.4119 C.3     1  UNL1        0.1140
     13 O         138.7574  144.9599  155.1913 O.3     1  UNL1       -0.3821
     14 C         140.3323  146.1945  157.3648 C.3     1  UNL1        0.0331
     15 C         140.8036  145.6126  158.6645 C.3     1  UNL1        0.0187
     16 H         138.4717  144.0366  155.2741 H       1  UNL1        0.2107
     17 C         139.5908  146.6396  155.6413 C.ar    1  UNL1        0.0518
     18 C         140.3595  146.8761  154.3751 C.ar    1  UNL1        0.1039
     19 N         140.1313  148.2972  153.9528 N.ar    1  UNL1       -0.2350
     20 C         139.2214  148.9390  154.9580 C.ar    1  UNL1        0.1343
     21 S         138.8874  147.9146  156.0014 S.2     1  UNL1       -0.0665
     22 C         143.5765  142.3525  165.5721 C.3     1  UNL1        0.1736
     23 N         143.0089  141.0532  166.0619 N.pl3   1  UNL1       -0.3252
     24 H         143.2816  140.2067  165.6397 H       1  UNL1        0.1473
     25 C         142.0260  141.0439  167.1949 C.ar    1  UNL1        0.0479
     26 C         142.3274  141.7987  168.4556 C.ar    1  UNL1        0.0350
     27 C         141.3444  141.7893  169.5885 C.ar    1  UNL1        0.1001
     28 N         140.0600  141.0251  169.4608 N.ar    1  UNL1       -0.2438
     29 C         139.7586  140.2702  168.2002 C.ar    1  UNL1        0.0825
     30 C         138.4743  139.5059  168.0725 C.ar    1  UNL1        0.0191
     31 C         138.1729  138.7511  166.8118 C.ar    1  UNL1        0.0054
     32 C         139.1558  138.7605  165.6788 C.ar    1  UNL1        0.0716
     33 C         140.4402  139.5247  165.8065 C.ar    1  UNL1        0.0066
     34 C         140.7416  140.2796  167.0672 C.ar    1  UNL1        0.0308
     35 C         138.8544  138.0056  164.4181 C.3     1  UNL1        0.4186
     36 F         138.5530  137.2507  163.1574 F       1  UNL1       -0.1659
     37 F         139.2652  139.1979  163.6060 F       1  UNL1       -0.1659
     38 F         138.4437  136.8133  165.2303 F       1  UNL1       -0.1659
@<TRIPOS>BOND
     1     1     2    2
     2     2    22    1
     3    22    23    1
     4    23    25    1
     5    25    26   ar
     6    26    27   ar
     7    27    28   ar
     8    28    29   ar
     9    29    30   ar
    10    30    31   ar
    11    31    32   ar
    12    32    35    1
    13    35    36    1
    14    35    37    1
    15    35    38    1
    16    32    33   ar
    17    33    34   ar
    18     2     3   am
    19     3     5    1
    20     5     6    1
    21     6     7    1
    22     9     7    1
    23     9    10    1
    24    10    11    1
    25    11    12    1
    26    12    13    1
    27    12    17    1
    28    17    18   ar
    29    18    19   ar
    30    19    20   ar
    31    20    21   ar
    32    12    14    1
    33    14    15    1
    34     7     8    1
    35    34    25   ar
    36     8     5    1
    37    34    29   ar
    38    15     9    1
    39    21    17   ar
    40    23    24    1
    41     3     4    1
    42    13    16    1
@<TRIPOS>MOLECULE
*****
 38 42 0 0 0
SMALL
GASTEIGER

@<TRIPOS>ATOM
      1 O         143.9575  144.7736  162.4731 O.2     1  UNL1       -0.2733
      2 C         142.5526  144.2477  162.4700 C.2     1  UNL1        0.2425
      3 N         142.0662  143.4148  161.3213 N.am    1  UNL1       -0.3018
      4 H         141.1442  143.0696  161.3192 H       1  UNL1        0.1495
      5 C         142.9845  143.1078  160.1756 C.3     1  UNL1        0.1035
      6 C         144.1790  142.2216  159.9818 C.3     1  UNL1        0.0933
      7 N         144.2832  142.6738  158.5554 N.3     1  UNL1       -0.2711
      8 C         143.0886  143.5601  158.7492 C.3     1  UNL1        0.0933
      9 C         145.2015  142.3669  157.4098 C.3     1  UNL1        0.0578
     10 C         144.6906  141.6062  156.2222 C.3     1  UNL1        0.0187
     11 C         145.6089  141.2993  155.0764 C.3     1  UNL1        0.0331
     12 C         147.0380  141.7530  155.1184 C.3     1  UNL1        0.1140
     13 O         147.0215  141.0672  153.7845 O.3     1  UNL1       -0.3821
     14 C         147.5489  142.5137  156.3061 C.3     1  UNL1        0.0331
     15 C         146.6306  142.8206  157.4517 C.3     1  UNL1        0.0187
     16 H         146.1350  140.7122  153.6144 H       1  UNL1        0.2107
     17 C         148.4614  141.9685  154.6971 C.ar    1  UNL1        0.0518
     18 C         149.6803  141.5111  155.4421 C.ar    1  UNL1        0.1039
     19 N         150.8880  141.9393  154.6623 N.ar    1  UNL1       -0.2350
     20 C         150.4154  142.6613  153.4352 C.ar    1  UNL1        0.1343
     21 S         148.9158  142.6793  153.4568 S.2     1  UNL1       -0.0665
     22 C         141.6344  144.5547  163.6156 C.3     1  UNL1        0.1736
     23 N         141.2980  143.4870  164.6141 N.pl3   1  UNL1       -0.3252
     24 H         141.8287  143.3992  165.4386 H       1  UNL1        0.1473
     25 C         140.1528  142.5530  164.3563 C.ar    1  UNL1        0.0479
     26 C         138.8481  143.0890  163.8460 C.ar    1  UNL1        0.0350
     27 C         137.7030  142.1551  163.5882 C.ar    1  UNL1        0.1001
     28 N         137.8627  140.6851  163.8407 N.ar    1  UNL1       -0.2438
     29 C         139.1674  140.1491  164.3510 C.ar    1  UNL1        0.0825
     30 C         139.3270  138.6792  164.6034 C.ar    1  UNL1        0.0191
     31 C         140.6317  138.1432  165.1137 C.ar    1  UNL1        0.0054
     32 C         141.7768  139.0771  165.3715 C.ar    1  UNL1        0.0716
     33 C         141.6172  140.5471  165.1191 C.ar    1  UNL1        0.0066
     34 C         140.3124  141.0831  164.6087 C.ar    1  UNL1        0.0308
     35 C         143.0815  138.5411  165.8818 C.3     1  UNL1        0.4186
     36 F         144.3863  138.0051  166.3922 F       1  UNL1       -0.1659
     37 F         143.5453  138.3274  164.4715 F       1  UNL1       -0.1659
     38 F         142.6177  138.7548  167.2922 F       1  UNL1       -0.1659
@<TRIPOS>BOND
     1     1     2    2
     2     2    22    1
     3    22    23    1
     4    23    25    1
     5    25    26   ar
     6    26    27   ar
     7    27    28   ar
     8    28    29   ar
     9    29    30   ar
    10    30    31   ar
    11    31    32   ar
    12    32    35    1
    13    35    36    1
    14    35    37    1
    15    35    38    1
    16    32    33   ar
    17    33    34   ar
    18     2     3   am
    19     3     5    1
    20     5     6    1
    21     6     7    1
    22     9     7    1
    23     9    10    1
    24    10    11    1
    25    11    12    1
    26    12    13    1
    27    12    17    1
    28    17    18   ar
    29    18    19   ar
    30    19    20   ar
    31    20    21   ar
    32    12    14    1
    33    14    15    1
    34     7     8    1
    35    34    25   ar
    36     8     5    1
    37    34    29   ar
    38    15     9    1
    39    21    17   ar
    40    23    24    1
    41     3     4    1
    42    13    16    1
@<TRIPOS>MOLECULE
*****
 38 42 0 0 0
SMALL
GASTEIGER

@<TRIPOS>ATOM
      1 O         138.9258  143.5143  160.2778 O.2     1  UNL1       -0.2733
      2 C         138.5114  142.3087  159.4874 C.2     1  UNL1        0.2425
      3 N         138.3162  140.9907  160.1766 N.am    1  UNL1       -0.3018
      4 H         138.0442  140.1995  159.6579 H       1  UNL1        0.1495
      5 C         138.5356  140.8785  161.6563 C.3     1  UNL1        0.1035
      6 C         139.6775  140.4508  162.5298 C.3     1  UNL1        0.0933
      7 N         138.8457  140.7197  163.7488 N.3     1  UNL1       -0.2711
      8 C         137.7038  141.1474  162.8753 C.3     1  UNL1        0.0933
      9 C         139.0651  140.6075  165.2284 C.3     1  UNL1        0.0578
     10 C         138.3481  139.5503  166.0148 C.3     1  UNL1        0.0187
     11 C         138.5674  139.4381  167.4944 C.3     1  UNL1        0.0331
     12 C         139.5036  140.3830  168.1877 C.3     1  UNL1        0.1140
     13 O         139.0581  139.5540  169.3557 O.3     1  UNL1       -0.3821
     14 C         140.2206  141.4402  167.4013 C.3     1  UNL1        0.0331
     15 C         140.0013  141.5524  165.9217 C.3     1  UNL1        0.0187
     16 H         138.4304  138.8794  169.0527 H       1  UNL1        0.2107
     17 C         140.2851  141.0400  169.2866 C.ar    1  UNL1        0.0518
     18 C         140.0928  142.4399  169.7900 C.ar    1  UNL1        0.1039
     19 N         141.0850  142.6775  170.8895 N.ar    1  UNL1       -0.2350
     20 C         141.8906  141.4244  171.0657 C.ar    1  UNL1        0.1343
     21 S         141.3963  140.4125  170.0750 S.2     1  UNL1       -0.0665
     22 C         138.2920  142.4210  158.0078 C.3     1  UNL1        0.1736
     23 N         138.5194  143.7308  157.3132 N.pl3   1  UNL1       -0.3252
     24 H         138.0891  144.5489  157.6520 H       1  UNL1        0.1473
     25 C         139.4026  143.7943  156.1023 C.ar    1  UNL1        0.0479
     26 C         140.0126  142.5391  155.5524 C.ar    1  UNL1        0.0350
     27 C         140.8957  142.6026  154.3416 C.ar    1  UNL1        0.1001
     28 N         141.1688  143.9212  153.6808 N.ar    1  UNL1       -0.2438
     29 C         140.5588  145.1763  154.2307 C.ar    1  UNL1        0.0825
     30 C         140.8318  146.4949  153.5698 C.ar    1  UNL1        0.0191
     31 C         140.2218  147.7500  154.1197 C.ar    1  UNL1        0.0054
     32 C         139.3386  147.6866  155.3306 C.ar    1  UNL1        0.0716
     33 C         139.0656  146.3680  155.9914 C.ar    1  UNL1        0.0066
     34 C         139.6757  145.1128  155.4415 C.ar    1  UNL1        0.0308
     35 C         138.7286  148.9417  155.8805 C.3     1  UNL1        0.4186
     36 F         138.1185  150.1970  156.4304 F       1  UNL1       -0.1659
     37 F         138.5475  148.2712  157.2100 F       1  UNL1       -0.1659
     38 F         138.9097  149.6122  154.5510 F       1  UNL1       -0.1659
@<TRIPOS>BOND
     1     1     2    2
     2     2    22    1
     3    22    23    1
     4    23    25    1
     5    25    26   ar
     6    26    27   ar
     7    27    28   ar
     8    28    29   ar
     9    29    30   ar
    10    30    31   ar
    11    31    32   ar
    12    32    35    1
    13    35    36    1
    14    35    37    1
    15    35    38    1
    16    32    33   ar
    17    33    34   ar
    18     2     3   am
    19     3     5    1
    20     5     6    1
    21     6     7    1
    22     9     7    1
    23     9    10    1
    24    10    11    1
    25    11    12    1
    26    12    13    1
    27    12    17    1
    28    17    18   ar
    29    18    19   ar
    30    19    20   ar
    31    20    21   ar
    32    12    14    1
    33    14    15    1
    34     7     8    1
    35    34    25   ar
    36     8     5    1
    37    34    29   ar
    38    15     9    1
    39    21    17   ar
    40    23    24    1
    41     3     4    1
    42    13    16    1
@<TRIPOS>MOLECULE
*****
 38 42 0 0 0
SMALL
GASTEIGER

@<TRIPOS>ATOM
      1 O         144.5032  143.5928  163.0392 O.2     1  UNL1       -0.2733
      2 C         143.2118  142.8498  163.2129 C.2     1  UNL1        0.2425
      3 N         142.6399  142.0628  162.0712 N.am    1  UNL1       -0.3018
      4 H         141.7923  141.5751  162.1852 H       1  UNL1        0.1495
      5 C         143.3594  142.0189  160.7557 C.3     1  UNL1        0.1035
      6 C         143.6836  143.0234  159.6901 C.3     1  UNL1        0.0933
      7 N         144.3770  141.9567  158.8954 N.3     1  UNL1       -0.2711
      8 C         144.0528  140.9521  159.9612 C.3     1  UNL1        0.0933
      9 C         145.0966  141.9127  157.5800 C.3     1  UNL1        0.0578
     10 C         144.4820  141.1991  156.4126 C.3     1  UNL1        0.0187
     11 C         145.2016  141.1551  155.0971 C.3     1  UNL1        0.0331
     12 C         146.5356  141.8247  154.9492 C.3     1  UNL1        0.1140
     13 O         146.3637  141.2776  153.5631 O.3     1  UNL1       -0.3821
     14 C         147.1501  142.5384  156.1167 C.3     1  UNL1        0.0331
     15 C         146.4306  142.5823  157.4321 C.3     1  UNL1        0.0187
     16 H         145.5192  140.8040  153.5049 H       1  UNL1        0.2107
     17 C         147.8099  142.3044  154.3199 C.ar    1  UNL1        0.0518
     18 C         149.1923  141.8269  154.6535 C.ar    1  UNL1        0.1039
     19 N         150.1623  142.5731  153.7863 N.ar    1  UNL1       -0.2350
     20 C         149.3795  143.5119  152.9167 C.ar    1  UNL1        0.1343
     21 S         147.9258  143.3457  153.2465 S.2     1  UNL1       -0.0665
     22 C         142.4923  142.8937  164.5283 C.3     1  UNL1        0.1736
     23 N         141.6413  141.7352  164.9569 N.pl3   1  UNL1       -0.3252
     24 H         140.6932  141.6972  164.6946 H       1  UNL1        0.1473
     25 C         142.2351  140.6344  165.7851 C.ar    1  UNL1        0.0479
     26 C         143.0052  139.5301  165.1237 C.ar    1  UNL1        0.0350
     27 C         143.5989  138.4294  165.9519 C.ar    1  UNL1        0.1001
     28 N         143.4224  138.4330  167.4415 N.ar    1  UNL1       -0.2438
     29 C         142.6523  139.5373  168.1028 C.ar    1  UNL1        0.0825
     30 C         142.4758  139.5408  169.5924 C.ar    1  UNL1        0.0191
     31 C         141.7057  140.6451  170.2538 C.ar    1  UNL1        0.0054
     32 C         141.1120  141.7458  169.4256 C.ar    1  UNL1        0.0716
     33 C         141.2884  141.7423  167.9360 C.ar    1  UNL1        0.0066
     34 C         142.0586  140.6380  167.2746 C.ar    1  UNL1        0.0308
     35 C         140.3418  142.8501  170.0870 C.3     1  UNL1        0.4186
     36 F         139.5717  143.9544  170.7484 F       1  UNL1       -0.1659
     37 F         140.6873  142.2849  171.4328 F       1  UNL1       -0.1659
     38 F         139.9964  143.4153  168.7412 F       1  UNL1       -0.1659
@<TRIPOS>BOND
     1     1     2    2
     2     2    22    1
     3    22    23    1
     4    23    25    1
     5    25    26   ar
     6    26    27   ar
     7    27    28   ar
     8    28    29   ar
     9    29    30   ar
    10    30    31   ar
    11    31    32   ar
    12    32    35    1
    13    35    36    1
    14    35    37    1
    15    35    38    1
    16    32    33   ar
    17    33    34   ar
    18     2     3   am
    19     3     5    1
    20     5     6    1
    21     6     7    1
    22     9     7    1
    23     9    10    1
    24    10    11    1
    25    11    12    1
    26    12    13    1
    27    12    17    1
    28    17    18   ar
    29    18    19   ar
    30    19    20   ar
    31    20    21   ar
    32    12    14    1
    33    14    15    1
    34     7     8    1
    35    34    25   ar
    36     8     5    1
    37    34    29   ar
    38    15     9    1
    39    21    17   ar
    40    23    24    1
    41     3     4    1
    42    13    16    1
