@<TRIPOS>MOLECULE
*****
 30 32 0 0 0
SMALL
GASTEIGER

@<TRIPOS>ATOM
      1 N         140.3615  142.9113  164.6588 N.ar    1  UNL1       -0.3137
      2 C         141.3928  143.2343  163.6187 C.ar    1  UNL1        0.1363
      3 N         141.7938  141.9529  162.9500 N.ar    1  UNL1       -0.2280
      4 C         141.0102  140.8379  163.5769 C.ar    1  UNL1        0.1175
      5 C         140.9885  139.3599  163.3224 C.ar    1  UNL1        0.1193
      6 N         140.0814  138.4742  164.1241 N.ar    1  UNL1       -0.2382
      7 C         139.1962  139.0665  165.1803 C.ar    1  UNL1        0.1542
      8 C         139.2180  140.5446  165.4347 C.ar    1  UNL1        0.0418
      9 C         140.1250  141.4303  164.6330 C.ar    1  UNL1        0.0816
     10 C         138.2892  138.1807  165.9820 C.3     1  UNL1        0.4349
     11 F         137.3822  137.2950  166.7837 F       1  UNL1       -0.1644
     12 F         137.6595  139.3905  166.6064 F       1  UNL1       -0.1644
     13 F         138.9188  136.9709  165.3577 F       1  UNL1       -0.1644
     14 C         138.5078  144.6841  165.0727 C.3     1  UNL1        0.0265
     15 C         139.6852  143.8964  165.5657 C.3     1  UNL1        0.1073
     16 C         141.9291  144.5991  163.3027 C.3     1  UNL1        0.1319
     17 C         143.2185  145.0587  163.9158 C.3     1  UNL1        0.0270
     18 N         141.1759  145.5042  162.3735 N.3     1  UNL1       -0.1735
     19 H         141.8013  146.2764  162.1435 H       1  UNL1        0.1492
     20 S         140.6472  144.9733  161.0741 S.O2    1  UNL1        0.0621
     21 O         142.0498  144.8294  160.5622 O.2     1  UNL1       -0.1529
     22 O         139.2446  145.1172  161.5859 O.2     1  UNL1       -0.1529
     23 C         140.1185  144.4424  159.7746 C.ar    1  UNL1        0.1411
     24 C         139.3806  143.1369  159.7425 C.ar    1  UNL1        0.0238
     25 C         138.8519  142.6060  158.4430 C.ar    1  UNL1        0.0310
     26 C         139.0611  143.3805  157.1757 C.ar    1  UNL1        0.1492
     27 N         139.7991  144.6861  157.2078 N.ar    1  UNL1       -0.2321
     28 C         140.3278  145.2170  158.5072 C.ar    1  UNL1        0.1195
     29 C         138.5325  142.8496  155.8762 C.1     1  UNL1        0.1198
     30 N         138.0038  142.3187  154.5767 N.1     1  UNL1       -0.1893
@<TRIPOS>BOND
     1    14    15    1
     2    15     1    1
     3     1     2   ar
     4     2    16    1
     5    16    17    1
     6    16    18    1
     7    18    20    1
     8    20    21    2
     9    20    22    2
    10    20    23    1
    11    23    24   ar
    12    24    25   ar
    13    25    26   ar
    14    26    29    1
    15    29    30    3
    16    26    27   ar
    17    27    28   ar
    18     2     3   ar
    19     3     4   ar
    20     4     5   ar
    21     5     6   ar
    22     6     7   ar
    23     7    10    1
    24    10    11    1
    25    10    12    1
    26    10    13    1
    27     7     8   ar
    28     8     9   ar
    29     9     1   ar
    30    28    23   ar
    31     9     4   ar
    32    18    19    1
@<TRIPOS>MOLECULE
*****
 30 32 0 0 0
SMALL
GASTEIGER

@<TRIPOS>ATOM
      1 N         141.4343  141.9054  166.0367 N.ar    1  UNL1       -0.3137
      2 C         142.1448  142.3537  164.7941 C.ar    1  UNL1        0.1363
      3 N         141.6891  141.4838  163.6602 N.ar    1  UNL1       -0.2280
      4 C         140.6970  140.4979  164.2021 C.ar    1  UNL1        0.1175
      5 C         139.9166  139.3966  163.5479 C.ar    1  UNL1        0.1193
      6 N         138.9788  138.5558  164.3624 N.ar    1  UNL1       -0.2382
      7 C         138.8214  138.8163  165.8312 C.ar    1  UNL1        0.1542
      8 C         139.6017  139.9176  166.4854 C.ar    1  UNL1        0.0418
      9 C         140.5395  140.7584  165.6709 C.ar    1  UNL1        0.0816
     10 C         137.8835  137.9754  166.6457 C.3     1  UNL1        0.4349
     11 F         136.9457  137.1346  167.4603 F       1  UNL1       -0.1644
     12 F         138.1837  136.7939  165.7718 F       1  UNL1       -0.1644
     13 F         137.5833  139.1569  167.5197 F       1  UNL1       -0.1644
     14 C         142.6763  142.0082  168.3164 C.3     1  UNL1        0.0265
     15 C         141.5911  142.4996  167.4050 C.3     1  UNL1        0.1073
     16 C         143.1368  143.4750  164.7015 C.3     1  UNL1        0.1319
     17 C         144.5051  143.3168  165.2954 C.3     1  UNL1        0.0270
     18 N         142.7605  144.7545  164.0151 N.3     1  UNL1       -0.1735
     19 H         143.6077  145.3201  163.9616 H       1  UNL1        0.1492
     20 S         142.1744  144.7209  162.6347 S.O2    1  UNL1        0.0621
     21 O         140.8434  145.1335  163.1899 O.2     1  UNL1       -0.1529
     22 O         143.5054  144.3084  162.0796 O.2     1  UNL1       -0.1529
     23 C         141.5883  144.6873  161.2544 C.ar    1  UNL1        0.1411
     24 C         142.1653  143.7707  160.2167 C.ar    1  UNL1        0.0238
     25 C         141.5792  143.7371  158.8364 C.ar    1  UNL1        0.0310
     26 C         140.4161  144.6200  158.4937 C.ar    1  UNL1        0.1492
     27 N         139.8390  145.5367  159.5314 N.ar    1  UNL1       -0.2321
     28 C         140.4251  145.5703  160.9118 C.ar    1  UNL1        0.1195
     29 C         139.8300  144.5864  157.1134 C.1     1  UNL1        0.1198
     30 N         139.2439  144.5528  155.7330 N.1     1  UNL1       -0.1893
@<TRIPOS>BOND
     1    14    15    1
     2    15     1    1
     3     1     2   ar
     4     2    16    1
     5    16    17    1
     6    16    18    1
     7    18    20    1
     8    20    21    2
     9    20    22    2
    10    20    23    1
    11    23    24   ar
    12    24    25   ar
    13    25    26   ar
    14    26    29    1
    15    29    30    3
    16    26    27   ar
    17    27    28   ar
    18     2     3   ar
    19     3     4   ar
    20     4     5   ar
    21     5     6   ar
    22     6     7   ar
    23     7    10    1
    24    10    11    1
    25    10    12    1
    26    10    13    1
    27     7     8   ar
    28     8     9   ar
    29     9     1   ar
    30    28    23   ar
    31     9     4   ar
    32    18    19    1
@<TRIPOS>MOLECULE
*****
 30 32 0 0 0
SMALL
GASTEIGER

@<TRIPOS>ATOM
      1 N         142.4911  141.5974  164.4742 N.ar    1  UNL1       -0.3137
      2 C         142.4624  142.8536  163.6550 C.ar    1  UNL1        0.1363
      3 N         141.0582  143.0577  163.1686 N.ar    1  UNL1       -0.2280
      4 C         140.2191  141.9277  163.6872 C.ar    1  UNL1        0.1175
      5 C         138.7631  141.6040  163.5289 C.ar    1  UNL1        0.1193
      6 N         138.1926  140.3777  164.1775 N.ar    1  UNL1       -0.2382
      7 C         139.0782  139.4751  164.9844 C.ar    1  UNL1        0.1542
      8 C         140.5342  139.7988  165.1427 C.ar    1  UNL1        0.0418
      9 C         141.1047  141.0251  164.4941 C.ar    1  UNL1        0.0816
     10 C         138.5077  138.2487  165.6330 C.3     1  UNL1        0.4349
     11 F         137.9372  137.0225  166.2816 F       1  UNL1       -0.1644
     12 F         139.3951  137.3871  164.7845 F       1  UNL1       -0.1644
     13 F         137.6203  139.1104  166.4815 F       1  UNL1       -0.1644
     14 C         144.1740  139.6427  164.7858 C.3     1  UNL1        0.0265
     15 C         143.6949  141.0155  165.1541 C.3     1  UNL1        0.1073
     16 C         143.6324  143.7485  163.3719 C.3     1  UNL1        0.1319
     17 C         143.7322  145.0870  164.0415 C.3     1  UNL1        0.0270
     18 N         144.7028  143.3049  162.4192 N.3     1  UNL1       -0.1735
     19 H         145.4082  142.8202  162.9740 H       1  UNL1        0.1492
     20 S         144.3585  142.4021  161.2719 S.O2    1  UNL1        0.0621
     21 O         145.1313  141.2893  161.9157 O.2     1  UNL1       -0.1529
     22 O         143.5857  143.5149  160.6281 O.2     1  UNL1       -0.1529
     23 C         144.0142  141.4992  160.1246 C.ar    1  UNL1        0.1411
     24 C         143.7721  142.0773  158.7618 C.ar    1  UNL1        0.0238
     25 C         143.4278  141.1744  157.6145 C.ar    1  UNL1        0.0310
     26 C         143.3256  139.6935  157.8300 C.ar    1  UNL1        0.1492
     27 N         143.5677  139.1154  159.1928 N.ar    1  UNL1       -0.2321
     28 C         143.9120  140.0183  160.3402 C.ar    1  UNL1        0.1195
     29 C         142.9813  138.7906  156.6827 C.1     1  UNL1        0.1198
     30 N         142.6371  137.8878  155.5354 N.1     1  UNL1       -0.1893
@<TRIPOS>BOND
     1    14    15    1
     2    15     1    1
     3     1     2   ar
     4     2    16    1
     5    16    17    1
     6    16    18    1
     7    18    20    1
     8    20    21    2
     9    20    22    2
    10    20    23    1
    11    23    24   ar
    12    24    25   ar
    13    25    26   ar
    14    26    29    1
    15    29    30    3
    16    26    27   ar
    17    27    28   ar
    18     2     3   ar
    19     3     4   ar
    20     4     5   ar
    21     5     6   ar
    22     6     7   ar
    23     7    10    1
    24    10    11    1
    25    10    12    1
    26    10    13    1
    27     7     8   ar
    28     8     9   ar
    29     9     1   ar
    30    28    23   ar
    31     9     4   ar
    32    18    19    1
@<TRIPOS>MOLECULE
*****
 30 32 0 0 0
SMALL
GASTEIGER

@<TRIPOS>ATOM
      1 N         141.5941  142.7826  164.1456 N.ar    1  UNL1       -0.3137
      2 C         143.0774  142.9915  164.2233 C.ar    1  UNL1        0.1363
      3 N         143.6307  142.0192  165.2224 N.ar    1  UNL1       -0.2280
      4 C         142.4893  141.2093  165.7623 C.ar    1  UNL1        0.1175
      5 C         142.4336  140.1032  166.7739 C.ar    1  UNL1        0.1193
      6 N         141.1191  139.4690  167.1200 N.ar    1  UNL1       -0.2382
      7 C         139.8603  139.9408  166.4544 C.ar    1  UNL1        0.1542
      8 C         139.9161  141.0469  165.4428 C.ar    1  UNL1        0.0418
      9 C         141.2306  141.6812  165.0968 C.ar    1  UNL1        0.0816
     10 C         138.5458  139.3065  166.8005 C.3     1  UNL1        0.4349
     11 F         137.2313  138.6723  167.1467 F       1  UNL1       -0.1644
     12 F         138.3021  139.0191  165.3486 F       1  UNL1       -0.1644
     13 F         138.7894  139.5939  168.2524 F       1  UNL1       -0.1644
     14 C         139.9186  144.7398  163.8110 C.3     1  UNL1        0.0265
     15 C         140.6414  143.5419  163.2704 C.3     1  UNL1        0.1073
     16 C         143.8685  143.9963  163.4394 C.3     1  UNL1        0.1319
     17 C         143.7049  145.4613  163.7170 C.3     1  UNL1        0.0270
     18 N         144.8233  143.5362  162.3780 N.3     1  UNL1       -0.1735
     19 H         145.6550  143.1933  162.8587 H       1  UNL1        0.1492
     20 S         144.4105  142.4669  161.4104 S.O2    1  UNL1        0.0621
     21 O         145.3462  141.5025  162.0771 O.2     1  UNL1       -0.1529
     22 O         143.4749  143.4313  160.7437 O.2     1  UNL1       -0.1529
     23 C         143.9978  141.3976  160.4428 C.ar    1  UNL1        0.1411
     24 C         143.4826  141.7730  159.0850 C.ar    1  UNL1        0.0238
     25 C         143.0698  140.7037  158.1175 C.ar    1  UNL1        0.0310
     26 C         143.1724  139.2590  158.5076 C.ar    1  UNL1        0.1492
     27 N         143.6876  138.8835  159.8654 N.ar    1  UNL1       -0.2321
     28 C         144.1004  139.9528  160.8330 C.ar    1  UNL1        0.1195
     29 C         142.7596  138.1897  157.5400 C.1     1  UNL1        0.1198
     30 N         142.3469  137.1203  156.5724 N.1     1  UNL1       -0.1893
@<TRIPOS>BOND
     1    14    15    1
     2    15     1    1
     3     1     2   ar
     4     2    16    1
     5    16    17    1
     6    16    18    1
     7    18    20    1
     8    20    21    2
     9    20    22    2
    10    20    23    1
    11    23    24   ar
    12    24    25   ar
    13    25    26   ar
    14    26    29    1
    15    29    30    3
    16    26    27   ar
    17    27    28   ar
    18     2     3   ar
    19     3     4   ar
    20     4     5   ar
    21     5     6   ar
    22     6     7   ar
    23     7    10    1
    24    10    11    1
    25    10    12    1
    26    10    13    1
    27     7     8   ar
    28     8     9   ar
    29     9     1   ar
    30    28    23   ar
    31     9     4   ar
    32    18    19    1
@<TRIPOS>MOLECULE
*****
 30 32 0 0 0
SMALL
GASTEIGER

@<TRIPOS>ATOM
      1 N         142.3489  141.1720  162.3006 N.ar    1  UNL1       -0.3137
      2 C         141.8952  139.7731  162.0054 C.ar    1  UNL1        0.1363
      3 N         140.4917  139.8421  161.4807 N.ar    1  UNL1       -0.2280
      4 C         140.0780  141.2837  161.4516 C.ar    1  UNL1        0.1175
      5 C         138.8044  141.9541  161.0292 C.ar    1  UNL1        0.1193
      6 N         138.6787  143.4464  161.1135 N.ar    1  UNL1       -0.2382
      7 C         139.8265  144.2683  161.6203 C.ar    1  UNL1        0.1542
      8 C         141.1001  143.5979  162.0427 C.ar    1  UNL1        0.0418
      9 C         141.2259  142.1056  161.9584 C.ar    1  UNL1        0.0816
     10 C         139.7008  145.7607  161.7046 C.3     1  UNL1        0.4349
     11 F         139.5750  147.2530  161.7890 F       1  UNL1       -0.1644
     12 F         140.0760  145.8742  160.2568 F       1  UNL1       -0.1644
     13 F         139.3255  145.6472  163.1524 F       1  UNL1       -0.1644
     14 C         144.6993  142.2205  161.9453 C.3     1  UNL1        0.0265
     15 C         143.6903  141.5679  162.8429 C.3     1  UNL1        0.1073
     16 C         142.7031  138.5245  162.2006 C.3     1  UNL1        0.1319
     17 C         143.7738  138.1621  161.2146 C.3     1  UNL1        0.0270
     18 N         142.4403  137.6381  163.3818 N.3     1  UNL1       -0.1735
     19 H         143.2653  137.0495  163.4976 H       1  UNL1        0.1492
     20 S         142.1483  138.2429  164.7230 S.O2    1  UNL1        0.0621
     21 O         143.5692  138.7134  164.8203 O.2     1  UNL1       -0.1529
     22 O         140.7273  137.7724  164.6258 O.2     1  UNL1       -0.1529
     23 C         141.8562  138.8477  166.0643 C.ar    1  UNL1        0.1411
     24 C         142.9319  138.9136  167.1076 C.ar    1  UNL1        0.0238
     25 C         142.6399  139.5184  168.4488 C.ar    1  UNL1        0.0310
     26 C         141.2721  140.0573  168.7468 C.ar    1  UNL1        0.1492
     27 N         140.1963  139.9914  167.7035 N.ar    1  UNL1       -0.2321
     28 C         140.4884  139.3866  166.3622 C.ar    1  UNL1        0.1195
     29 C         140.9801  140.6621  170.0880 C.1     1  UNL1        0.1198
     30 N         140.6880  141.2668  171.4293 N.1     1  UNL1       -0.1893
@<TRIPOS>BOND
     1    14    15    1
     2    15     1    1
     3     1     2   ar
     4     2    16    1
     5    16    17    1
     6    16    18    1
     7    18    20    1
     8    20    21    2
     9    20    22    2
    10    20    23    1
    11    23    24   ar
    12    24    25   ar
    13    25    26   ar
    14    26    29    1
    15    29    30    3
    16    26    27   ar
    17    27    28   ar
    18     2     3   ar
    19     3     4   ar
    20     4     5   ar
    21     5     6   ar
    22     6     7   ar
    23     7    10    1
    24    10    11    1
    25    10    12    1
    26    10    13    1
    27     7     8   ar
    28     8     9   ar
    29     9     1   ar
    30    28    23   ar
    31     9     4   ar
    32    18    19    1
@<TRIPOS>MOLECULE
*****
 30 32 0 0 0
SMALL
GASTEIGER

@<TRIPOS>ATOM
      1 N         141.2244  140.6675  162.1962 N.ar    1  UNL1       -0.3137
      2 C         142.5212  140.0222  162.5859 C.ar    1  UNL1        0.1363
      3 N         143.5363  141.1076  162.7893 N.ar    1  UNL1       -0.2280
      4 C         142.8670  142.4237  162.5252 C.ar    1  UNL1        0.1175
      5 C         143.3740  143.8346  162.5711 C.ar    1  UNL1        0.1193
      6 N         142.4521  144.9736  162.2505 N.ar    1  UNL1       -0.2382
      7 C         141.0233  144.7017  161.8839 C.ar    1  UNL1        0.1542
      8 C         140.5163  143.2907  161.8380 C.ar    1  UNL1        0.0418
      9 C         141.4381  142.1517  162.1586 C.ar    1  UNL1        0.0816
     10 C         140.1014  145.8407  161.5632 C.3     1  UNL1        0.4349
     11 F         139.1796  146.9797  161.2427 F       1  UNL1       -0.1644
     12 F         140.6273  145.8711  160.1588 F       1  UNL1       -0.1644
     13 F         139.5755  145.8104  162.9677 F       1  UNL1       -0.1644
     14 C         139.7762  139.2150  160.6015 C.3     1  UNL1        0.0265
     15 C         139.9395  139.9540  161.8965 C.3     1  UNL1        0.1073
     16 C         142.7607  138.5499  162.7445 C.3     1  UNL1        0.1319
     17 C         143.6187  137.8188  161.7550 C.3     1  UNL1        0.0270
     18 N         142.1422  137.8088  163.8926 N.3     1  UNL1       -0.1735
     19 H         142.7479  137.0121  164.0894 H       1  UNL1        0.1492
     20 S         141.9092  138.5087  165.1988 S.O2    1  UNL1        0.0621
     21 O         140.4298  138.4745  164.9532 O.2     1  UNL1       -0.1529
     22 O         143.3886  138.5428  165.4443 O.2     1  UNL1       -0.1529
     23 C         141.6762  139.2085  166.5049 C.ar    1  UNL1        0.1411
     24 C         142.7776  139.2880  167.5201 C.ar    1  UNL1        0.0238
     25 C         142.5446  139.9878  168.8262 C.ar    1  UNL1        0.0310
     26 C         141.2103  140.6082  169.1171 C.ar    1  UNL1        0.1492
     27 N         140.1088  140.5288  168.1019 N.ar    1  UNL1       -0.2321
     28 C         140.3418  139.8289  166.7958 C.ar    1  UNL1        0.1195
     29 C         140.9773  141.3080  170.4232 C.1     1  UNL1        0.1198
     30 N         140.7443  142.0079  171.7294 N.1     1  UNL1       -0.1893
@<TRIPOS>BOND
     1    14    15    1
     2    15     1    1
     3     1     2   ar
     4     2    16    1
     5    16    17    1
     6    16    18    1
     7    18    20    1
     8    20    21    2
     9    20    22    2
    10    20    23    1
    11    23    24   ar
    12    24    25   ar
    13    25    26   ar
    14    26    29    1
    15    29    30    3
    16    26    27   ar
    17    27    28   ar
    18     2     3   ar
    19     3     4   ar
    20     4     5   ar
    21     5     6   ar
    22     6     7   ar
    23     7    10    1
    24    10    11    1
    25    10    12    1
    26    10    13    1
    27     7     8   ar
    28     8     9   ar
    29     9     1   ar
    30    28    23   ar
    31     9     4   ar
    32    18    19    1
@<TRIPOS>MOLECULE
*****
 30 32 0 0 0
SMALL
GASTEIGER

@<TRIPOS>ATOM
      1 N         139.6881  141.7303  164.9149 N.ar    1  UNL1       -0.3137
      2 C         139.5908  143.0606  164.2287 C.ar    1  UNL1        0.1363
      3 N         140.9784  143.4934  163.8580 N.ar    1  UNL1       -0.2280
      4 C         141.9332  142.4307  164.3152 C.ar    1  UNL1        0.1175
      5 C         143.4256  142.3145  164.2211 C.ar    1  UNL1        0.1193
      6 N         144.1207  141.1086  164.7802 N.ar    1  UNL1       -0.2382
      7 C         143.3233  140.0189  165.4334 C.ar    1  UNL1        0.1542
      8 C         141.8308  140.1351  165.5275 C.ar    1  UNL1        0.0418
      9 C         141.1357  141.3410  164.9684 C.ar    1  UNL1        0.0816
     10 C         144.0184  138.8129  165.9925 C.3     1  UNL1        0.4349
     11 F         144.7135  137.6070  166.5515 F       1  UNL1       -0.1644
     12 F         142.9674  138.7005  167.0568 F       1  UNL1       -0.1644
     13 F         145.0694  138.9254  164.9282 F       1  UNL1       -0.1644
     14 C         138.2771  139.5489  164.9299 C.3     1  UNL1        0.0265
     15 C         138.5394  140.9298  165.4532 C.3     1  UNL1        0.1073
     16 C         138.3278  143.8239  163.9602 C.3     1  UNL1        0.1319
     17 C         137.7015  144.6442  165.0487 C.3     1  UNL1        0.0270
     18 N         137.6911  143.7671  162.6033 N.3     1  UNL1       -0.1735
     19 H         137.8805  144.6617  162.1514 H       1  UNL1        0.1492
     20 S         138.0920  142.6975  161.6310 S.O2    1  UNL1        0.0621
     21 O         139.0124  143.6644  160.9468 O.2     1  UNL1       -0.1529
     22 O         137.1716  141.7306  162.3151 O.2     1  UNL1       -0.1529
     23 C         138.4928  141.6279  160.6587 C.ar    1  UNL1        0.1411
     24 C         138.5180  141.9224  159.1881 C.ar    1  UNL1        0.0238
     25 C         138.9189  140.8529  158.2158 C.ar    1  UNL1        0.0310
     26 C         139.2945  139.4888  158.7140 C.ar    1  UNL1        0.1492
     27 N         139.2692  139.1943  160.1847 N.ar    1  UNL1       -0.2321
     28 C         138.8684  140.2639  161.1570 C.ar    1  UNL1        0.1195
     29 C         139.6953  138.4193  157.7417 C.1     1  UNL1        0.1198
     30 N         140.0961  137.3497  156.7694 N.1     1  UNL1       -0.1893
@<TRIPOS>BOND
     1    14    15    1
     2    15     1    1
     3     1     2   ar
     4     2    16    1
     5    16    17    1
     6    16    18    1
     7    18    20    1
     8    20    21    2
     9    20    22    2
    10    20    23    1
    11    23    24   ar
    12    24    25   ar
    13    25    26   ar
    14    26    29    1
    15    29    30    3
    16    26    27   ar
    17    27    28   ar
    18     2     3   ar
    19     3     4   ar
    20     4     5   ar
    21     5     6   ar
    22     6     7   ar
    23     7    10    1
    24    10    11    1
    25    10    12    1
    26    10    13    1
    27     7     8   ar
    28     8     9   ar
    29     9     1   ar
    30    28    23   ar
    31     9     4   ar
    32    18    19    1
@<TRIPOS>MOLECULE
*****
 30 32 0 0 0
SMALL
GASTEIGER

@<TRIPOS>ATOM
      1 N         140.0075  141.5302  165.7320 N.ar    1  UNL1       -0.3137
      2 C         139.0667  140.3836  165.5079 C.ar    1  UNL1        0.1363
      3 N         138.9134  139.6492  166.8068 N.ar    1  UNL1       -0.2280
      4 C         139.7595  140.3419  167.8337 C.ar    1  UNL1        0.1175
      5 C         140.0015  140.0643  169.2877 C.ar    1  UNL1        0.1193
      6 N         140.9197  140.9492  170.0774 N.ar    1  UNL1       -0.2382
      7 C         141.5959  142.1118  169.4131 C.ar    1  UNL1        0.1542
      8 C         141.3539  142.3894  167.9591 C.ar    1  UNL1        0.0418
      9 C         140.4357  141.5045  167.1694 C.ar    1  UNL1        0.0816
     10 C         142.5142  142.9967  170.2030 C.3     1  UNL1        0.4349
     11 F         143.4324  143.8816  170.9928 F       1  UNL1       -0.1644
     12 F         141.4873  144.0897  170.1723 F       1  UNL1       -0.1644
     13 F         143.5410  141.9038  170.2337 F       1  UNL1       -0.1644
     14 C         140.0035  143.9575  164.8057 C.3     1  UNL1        0.0265
     15 C         140.4436  142.5275  164.6999 C.3     1  UNL1        0.1073
     16 C         138.3968  140.0329  164.2124 C.3     1  UNL1        0.1319
     17 C         137.5188  141.0371  163.5262 C.3     1  UNL1        0.0270
     18 N         138.6049  138.6782  163.6031 N.3     1  UNL1       -0.1735
     19 H         137.6811  138.3177  163.3644 H       1  UNL1        0.1492
     20 S         139.4575  138.5297  162.3780 S.O2    1  UNL1        0.0621
     21 O         140.6747  138.8767  163.1831 O.2     1  UNL1       -0.1529
     22 O         138.2404  138.1827  161.5729 O.2     1  UNL1       -0.1529
     23 C         140.3102  138.3813  161.1529 C.ar    1  UNL1        0.1411
     24 C         139.7242  138.6363  159.7959 C.ar    1  UNL1        0.0238
     25 C         140.5768  138.4878  158.5707 C.ar    1  UNL1        0.0310
     26 C         142.0155  138.0844  158.7026 C.ar    1  UNL1        0.1492
     27 N         142.6016  137.8294  160.0597 N.ar    1  UNL1       -0.2321
     28 C         141.7489  137.9778  161.2848 C.ar    1  UNL1        0.1195
     29 C         142.8681  137.9359  157.4775 C.1     1  UNL1        0.1198
     30 N         143.7208  137.7875  156.2524 N.1     1  UNL1       -0.1893
@<TRIPOS>BOND
     1    14    15    1
     2    15     1    1
     3     1     2   ar
     4     2    16    1
     5    16    17    1
     6    16    18    1
     7    18    20    1
     8    20    21    2
     9    20    22    2
    10    20    23    1
    11    23    24   ar
    12    24    25   ar
    13    25    26   ar
    14    26    29    1
    15    29    30    3
    16    26    27   ar
    17    27    28   ar
    18     2     3   ar
    19     3     4   ar
    20     4     5   ar
    21     5     6   ar
    22     6     7   ar
    23     7    10    1
    24    10    11    1
    25    10    12    1
    26    10    13    1
    27     7     8   ar
    28     8     9   ar
    29     9     1   ar
    30    28    23   ar
    31     9     4   ar
    32    18    19    1
@<TRIPOS>MOLECULE
*****
 30 32 0 0 0
SMALL
GASTEIGER

@<TRIPOS>ATOM
      1 N         141.3623  144.9244  160.9139 N.ar    1  UNL1       -0.3137
      2 C         142.5141  144.0128  161.2176 C.ar    1  UNL1        0.1363
      3 N         143.0711  143.5201  159.9149 N.ar    1  UNL1       -0.2280
      4 C         142.2635  144.1272  158.8062 C.ar    1  UNL1        0.1175
      5 C         142.3534  144.0019  157.3141 C.ar    1  UNL1        0.1193
      6 N         141.3871  144.7444  156.4396 N.ar    1  UNL1       -0.2382
      7 C         140.3310  145.6123  157.0571 C.ar    1  UNL1        0.1542
      8 C         140.2411  145.7377  158.5491 C.ar    1  UNL1        0.0418
      9 C         141.2074  144.9952  159.4236 C.ar    1  UNL1        0.0816
     10 C         139.3646  146.3549  156.1824 C.3     1  UNL1        0.4349
     11 F         138.3984  147.0975  155.3079 F       1  UNL1       -0.1644
     12 F         139.5359  145.3177  155.1125 F       1  UNL1       -0.1644
     13 F         139.1934  147.3922  157.2524 F       1  UNL1       -0.1644
     14 C         139.1644  145.0970  162.2886 C.3     1  UNL1        0.0265
     15 C         140.5142  145.6398  161.9234 C.3     1  UNL1        0.1073
     16 C         143.0201  143.6565  162.5839 C.3     1  UNL1        0.1319
     17 C         143.9160  144.6057  163.3231 C.3     1  UNL1        0.0270
     18 N         142.6303  142.3509  163.2112 N.3     1  UNL1       -0.1735
     19 H         143.3994  141.7024  163.0435 H       1  UNL1        0.1492
     20 S         142.3210  142.2861  164.6775 S.O2    1  UNL1        0.0621
     21 O         143.5833  141.5096  164.9094 O.2     1  UNL1       -0.1529
     22 O         141.0588  143.0625  164.4457 O.2     1  UNL1       -0.1529
     23 C         142.0118  142.2212  166.1439 C.ar    1  UNL1        0.1411
     24 C         143.1155  142.3609  167.1500 C.ar    1  UNL1        0.0238
     25 C         142.8062  142.2960  168.6164 C.ar    1  UNL1        0.0310
     26 C         141.3934  142.0915  169.0766 C.ar    1  UNL1        0.1492
     27 N         140.2896  141.9517  168.0704 N.ar    1  UNL1       -0.2321
     28 C         140.5988  142.0166  166.6041 C.ar    1  UNL1        0.1195
     29 C         141.0841  142.0266  170.5429 C.1     1  UNL1        0.1198
     30 N         140.7749  141.9617  172.0093 N.1     1  UNL1       -0.1893
@<TRIPOS>BOND
     1    14    15    1
     2    15     1    1
     3     1     2   ar
     4     2    16    1
     5    16    17    1
     6    16    18    1
     7    18    20    1
     8    20    21    2
     9    20    22    2
    10    20    23    1
    11    23    24   ar
    12    24    25   ar
    13    25    26   ar
    14    26    29    1
    15    29    30    3
    16    26    27   ar
    17    27    28   ar
    18     2     3   ar
    19     3     4   ar
    20     4     5   ar
    21     5     6   ar
    22     6     7   ar
    23     7    10    1
    24    10    11    1
    25    10    12    1
    26    10    13    1
    27     7     8   ar
    28     8     9   ar
    29     9     1   ar
    30    28    23   ar
    31     9     4   ar
    32    18    19    1
