@<TRIPOS>MOLECULE
*****
 34 38 0 0 0
SMALL
GASTEIGER

@<TRIPOS>ATOM
      1 C         141.5792  138.5626  161.6931 C.ar    1  UNL1        0.0541
      2 C         142.7554  137.6583  161.4719 C.ar    1  UNL1        0.0180
      3 C         143.2168  137.3556  160.0770 C.ar    1  UNL1        0.0382
      4 C         142.5021  137.9571  158.9035 C.ar    1  UNL1        0.1385
      5 C         141.3259  138.8614  159.1247 C.ar    1  UNL1        0.0382
      6 C         140.8645  139.1641  160.5194 C.ar    1  UNL1        0.0180
      7 O         138.4461  139.1936  167.7787 O.2     1  UNL1       -0.2699
      8 C         139.7333  139.7735  167.2721 C.2     1  UNL1        0.2494
      9 N         140.1948  139.4708  165.8774 N.am    1  UNL1       -0.2660
     10 C         141.4821  140.0507  165.3708 C.3     1  UNL1        0.1160
     11 C         141.9435  139.7479  163.9760 C.3     1  UNL1        0.1197
     12 N         141.1177  138.8653  163.0878 N.am    1  UNL1       -0.2555
     13 C         139.8305  138.2854  163.5944 C.2     1  UNL1        0.2497
     14 O         139.0046  137.4027  162.7062 O.2     1  UNL1       -0.2727
     15 C         139.3690  138.5881  164.9891 C.3     1  UNL1        0.1799
     16 C         140.5592  140.6562  168.1604 C.ar    1  UNL1        0.0536
     17 C         141.6486  140.0629  169.0036 C.ar    1  UNL1        0.0054
     18 C         142.4744  140.9456  169.8918 C.ar    1  UNL1        0.0115
     19 C         142.2107  142.4215  169.9368 C.ar    1  UNL1        0.0577
     20 CL        143.0365  143.3042  170.8251 Cl      1  UNL1       -0.0822
     21 C         141.1212  143.0148  169.0936 C.ar    1  UNL1        0.0115
     22 C         140.2954  142.1321  168.2054 C.ar    1  UNL1        0.0054
     23 O         142.9636  137.6544  157.5087 O.3     1  UNL1       -0.4791
     24 C         142.6133  136.3427  156.8709 C.3     1  UNL1        0.1687
     25 C         141.5180  136.2748  155.8484 C.3     1  UNL1        0.0609
     26 C         141.1677  134.9631  155.2106 C.3     1  UNL1        0.0758
     27 N         141.9127  133.7194  155.5953 N.3     1  UNL1       -0.2737
     28 C         143.0082  133.7873  156.6179 C.3     1  UNL1        0.0758
     29 C         143.3584  135.0990  157.2557 C.3     1  UNL1        0.0609
     30 C         141.5625  132.4077  154.9575 C.3     1  UNL1        0.0575
     31 C         140.8839  132.2251  153.6322 C.3     1  UNL1        0.0160
     32 C         140.7313  130.7528  153.3887 C.3     1  UNL1        0.0014
     33 C         141.3156  130.0256  154.5633 C.3     1  UNL1        0.0014
     34 C         141.8292  131.0484  155.5329 C.3     1  UNL1        0.0160
@<TRIPOS>BOND
     1     7     8    2
     2     8    16    1
     3    16    17   ar
     4    17    18   ar
     5    18    19   ar
     6    19    20    1
     7    19    21   ar
     8    21    22   ar
     9     8     9   am
    10     9    10    1
    11    10    11    1
    12    11    12    1
    13    12     1    1
    14     1     2   ar
    15     2     3   ar
    16     3     4   ar
    17     4    23    1
    18    23    24    1
    19    24    25    1
    20    25    26    1
    21    26    27    1
    22    27    30    1
    23    30    31    1
    24    31    32    1
    25    32    33    1
    26    33    34    1
    27    27    28    1
    28    28    29    1
    29     4     5   ar
    30     5     6   ar
    31    12    13   am
    32    13    14    2
    33    13    15    1
    34    22    16   ar
    35    15     9    1
    36     6     1   ar
    37    29    24    1
    38    34    30    1
@<TRIPOS>MOLECULE
*****
 34 38 0 0 0
SMALL
GASTEIGER

@<TRIPOS>ATOM
      1 C         141.1321  138.8909  161.5306 C.ar    1  UNL1        0.0541
      2 C         142.2502  137.9581  161.1706 C.ar    1  UNL1        0.0180
      3 C         142.6061  137.7343  159.7307 C.ar    1  UNL1        0.0382
      4 C         141.8438  138.4433  158.6508 C.ar    1  UNL1        0.1385
      5 C         140.7257  139.3762  159.0108 C.ar    1  UNL1        0.0382
      6 C         140.3699  139.6000  160.4506 C.ar    1  UNL1        0.0180
      7 O         138.4922  139.1299  167.8728 O.2     1  UNL1       -0.2699
      8 C         139.7086  139.7863  167.2900 C.2     1  UNL1        0.2494
      9 N         140.0645  139.5625  165.8502 N.am    1  UNL1       -0.2660
     10 C         141.2808  140.2189  165.2675 C.3     1  UNL1        0.1160
     11 C         141.6367  139.9950  163.8275 C.3     1  UNL1        0.1197
     12 N         140.7762  139.1148  162.9704 N.am    1  UNL1       -0.2555
     13 C         139.5599  138.4583  163.5532 C.2     1  UNL1        0.2497
     14 O         138.6994  137.5781  162.6960 O.2     1  UNL1       -0.2727
     15 C         139.2040  138.6822  164.9930 C.3     1  UNL1        0.1799
     16 C         140.5691  140.6666  168.1472 C.ar    1  UNL1        0.0536
     17 C         140.2526  142.1270  168.2776 C.ar    1  UNL1        0.0054
     18 C         141.1131  143.0072  169.1348 C.ar    1  UNL1        0.0115
     19 C         142.2900  142.4270  169.8616 C.ar    1  UNL1        0.0577
     20 CL        143.1505  143.3073  170.7188 Cl      1  UNL1       -0.0822
     21 C         142.6065  140.9666  169.7312 C.ar    1  UNL1        0.0115
     22 C         141.7460  140.0864  168.8740 C.ar    1  UNL1        0.0054
     23 O         142.1997  138.2195  157.2109 O.3     1  UNL1       -0.4791
     24 C         143.3430  138.9706  156.5954 C.3     1  UNL1        0.1687
     25 C         143.9923  138.4556  155.3452 C.3     1  UNL1        0.0609
     26 C         145.1355  139.2066  154.7297 C.3     1  UNL1        0.0758
     27 N         145.6294  140.4728  155.3644 N.3     1  UNL1       -0.2737
     28 C         144.9801  140.9879  156.6147 C.3     1  UNL1        0.0758
     29 C         143.8369  140.2368  157.2302 C.3     1  UNL1        0.0609
     30 C         146.7727  141.2239  154.7489 C.3     1  UNL1        0.0575
     31 C         148.0203  141.6648  155.4555 C.3     1  UNL1        0.0160
     32 C         148.8877  142.3793  154.4619 C.3     1  UNL1        0.0014
     33 C         148.1763  142.3800  153.1414 C.3     1  UNL1        0.0014
     34 C         146.8691  141.6659  153.3187 C.3     1  UNL1        0.0160
@<TRIPOS>BOND
     1     7     8    2
     2     8    16    1
     3    16    17   ar
     4    17    18   ar
     5    18    19   ar
     6    19    20    1
     7    19    21   ar
     8    21    22   ar
     9     8     9   am
    10     9    10    1
    11    10    11    1
    12    11    12    1
    13    12     1    1
    14     1     2   ar
    15     2     3   ar
    16     3     4   ar
    17     4    23    1
    18    23    24    1
    19    24    25    1
    20    25    26    1
    21    26    27    1
    22    27    30    1
    23    30    31    1
    24    31    32    1
    25    32    33    1
    26    33    34    1
    27    27    28    1
    28    28    29    1
    29     4     5   ar
    30     5     6   ar
    31    12    13   am
    32    13    14    2
    33    13    15    1
    34    22    16   ar
    35    15     9    1
    36     6     1   ar
    37    29    24    1
    38    34    30    1
@<TRIPOS>MOLECULE
*****
 34 38 0 0 0
SMALL
GASTEIGER

@<TRIPOS>ATOM
      1 C         140.7773  139.9376  160.4352 C.ar    1  UNL1        0.0541
      2 C         139.7186  138.9880  159.9585 C.ar    1  UNL1        0.0180
      3 C         139.8457  138.3370  158.6130 C.ar    1  UNL1        0.0382
      4 C         141.0314  138.6357  157.7443 C.ar    1  UNL1        0.1385
      5 C         142.0902  139.5854  158.2210 C.ar    1  UNL1        0.0382
      6 C         141.9632  140.2363  159.5664 C.ar    1  UNL1        0.0180
      7 O         139.5077  143.8258  165.9596 O.2     1  UNL1       -0.2699
      8 C         140.2693  142.5414  165.8168 C.2     1  UNL1        0.2494
      9 N         140.3963  141.8905  164.4714 N.am    1  UNL1       -0.2660
     10 C         141.1579  140.6061  164.3285 C.3     1  UNL1        0.1160
     11 C         141.2849  139.9552  162.9830 C.3     1  UNL1        0.1197
     12 N         140.6503  140.5886  161.7805 N.am    1  UNL1       -0.2555
     13 C         139.8887  141.8729  161.9234 C.2     1  UNL1        0.2497
     14 O         139.2542  142.5063  160.7209 O.2     1  UNL1       -0.2727
     15 C         139.7617  142.5239  163.2688 C.3     1  UNL1        0.1799
     16 C         140.9039  141.9080  167.0194 C.ar    1  UNL1        0.0536
     17 C         140.1487  140.8844  167.8143 C.ar    1  UNL1        0.0054
     18 C         140.7833  140.2511  169.0168 C.ar    1  UNL1        0.0115
     19 C         142.1731  140.6413  169.4244 C.ar    1  UNL1        0.0577
     20 CL        142.8077  140.0079  170.6270 Cl      1  UNL1       -0.0822
     21 C         142.9283  141.6649  168.6295 C.ar    1  UNL1        0.0115
     22 C         142.2937  142.2983  167.4270 C.ar    1  UNL1        0.0054
     23 O         141.1584  137.9848  156.3990 O.3     1  UNL1       -0.4791
     24 C         141.6752  136.5808  156.2909 C.3     1  UNL1        0.1687
     25 C         141.0034  135.6028  155.3732 C.3     1  UNL1        0.0609
     26 C         141.5202  134.1988  155.2651 C.3     1  UNL1        0.0758
     27 N         142.7089  133.7728  156.0747 N.3     1  UNL1       -0.2737
     28 C         143.3808  134.7507  156.9924 C.3     1  UNL1        0.0758
     29 C         142.8640  136.1547  157.1005 C.3     1  UNL1        0.0609
     30 C         143.2257  132.3688  155.9666 C.3     1  UNL1        0.0575
     31 C         142.3918  131.1321  155.8069 C.3     1  UNL1        0.0160
     32 C         143.3179  129.9540  155.7408 C.3     1  UNL1        0.0014
     33 C         144.7241  130.4625  155.8596 C.3     1  UNL1        0.0014
     34 C         144.6671  131.9549  155.9992 C.3     1  UNL1        0.0160
@<TRIPOS>BOND
     1     7     8    2
     2     8    16    1
     3    16    17   ar
     4    17    18   ar
     5    18    19   ar
     6    19    20    1
     7    19    21   ar
     8    21    22   ar
     9     8     9   am
    10     9    10    1
    11    10    11    1
    12    11    12    1
    13    12     1    1
    14     1     2   ar
    15     2     3   ar
    16     3     4   ar
    17     4    23    1
    18    23    24    1
    19    24    25    1
    20    25    26    1
    21    26    27    1
    22    27    30    1
    23    30    31    1
    24    31    32    1
    25    32    33    1
    26    33    34    1
    27    27    28    1
    28    28    29    1
    29     4     5   ar
    30     5     6   ar
    31    12    13   am
    32    13    14    2
    33    13    15    1
    34    22    16   ar
    35    15     9    1
    36     6     1   ar
    37    29    24    1
    38    34    30    1
@<TRIPOS>MOLECULE
*****
 34 38 0 0 0
SMALL
GASTEIGER

@<TRIPOS>ATOM
      1 C         140.7551  141.1329  158.8465 C.ar    1  UNL1        0.0541
      2 C         141.9465  141.9486  158.4402 C.ar    1  UNL1        0.0180
      3 C         141.9245  142.7189  157.1532 C.ar    1  UNL1        0.0382
      4 C         140.7111  142.6734  156.2725 C.ar    1  UNL1        0.1385
      5 C         139.5197  141.8577  156.6788 C.ar    1  UNL1        0.0382
      6 C         139.5416  141.0875  157.9658 C.ar    1  UNL1        0.0180
      7 O         141.2231  136.6010  163.9936 O.2     1  UNL1       -0.2699
      8 C         140.8429  138.0521  163.9943 C.2     1  UNL1        0.2494
      9 N         140.8209  138.8223  162.7074 N.am    1  UNL1       -0.2660
     10 C         140.4407  140.2733  162.7081 C.3     1  UNL1        0.1160
     11 C         140.4188  141.0435  161.4211 C.3     1  UNL1        0.1197
     12 N         140.7770  140.3627  160.1334 N.am    1  UNL1       -0.2555
     13 C         141.1572  138.9117  160.1327 C.2     1  UNL1        0.2497
     14 O         141.5155  138.2309  158.8450 O.2     1  UNL1       -0.2727
     15 C         141.1792  138.1415  161.4196 C.3     1  UNL1        0.1799
     16 C         140.4846  138.7328  165.2821 C.ar    1  UNL1        0.0536
     17 C         141.5441  139.4330  166.0803 C.ar    1  UNL1        0.0054
     18 C         141.1858  140.1138  167.3680 C.ar    1  UNL1        0.0115
     19 C         139.7680  140.0943  167.8574 C.ar    1  UNL1        0.0577
     20 CL        139.4098  140.7751  169.1452 Cl      1  UNL1       -0.0822
     21 C         138.7086  139.3941  167.0592 C.ar    1  UNL1        0.0115
     22 C         139.0669  138.7134  165.7715 C.ar    1  UNL1        0.0054
     23 O         140.6892  143.4436  154.9856 O.3     1  UNL1       -0.4791
     24 C         140.3409  144.9026  154.9906 C.3     1  UNL1        0.1687
     25 C         139.5696  145.4857  156.1373 C.3     1  UNL1        0.0609
     26 C         139.2213  146.9447  156.1423 C.3     1  UNL1        0.0758
     27 N         139.6443  147.8206  155.0005 N.3     1  UNL1       -0.2737
     28 C         140.4156  147.2376  153.8537 C.3     1  UNL1        0.0758
     29 C         140.7639  145.7786  153.8487 C.3     1  UNL1        0.0609
     30 C         139.2960  149.2796  155.0055 C.3     1  UNL1        0.0575
     31 C         139.6909  150.2839  153.9635 C.3     1  UNL1        0.0160
     32 C         139.1306  151.6155  154.3674 C.3     1  UNL1        0.0014
     33 C         138.3895  151.4341  155.6588 C.3     1  UNL1        0.0014
     34 C         138.4917  149.9905  156.0532 C.3     1  UNL1        0.0160
@<TRIPOS>BOND
     1     7     8    2
     2     8    16    1
     3    16    17   ar
     4    17    18   ar
     5    18    19   ar
     6    19    20    1
     7    19    21   ar
     8    21    22   ar
     9     8     9   am
    10     9    10    1
    11    10    11    1
    12    11    12    1
    13    12     1    1
    14     1     2   ar
    15     2     3   ar
    16     3     4   ar
    17     4    23    1
    18    23    24    1
    19    24    25    1
    20    25    26    1
    21    26    27    1
    22    27    30    1
    23    30    31    1
    24    31    32    1
    25    32    33    1
    26    33    34    1
    27    27    28    1
    28    28    29    1
    29     4     5   ar
    30     5     6   ar
    31    12    13   am
    32    13    14    2
    33    13    15    1
    34    22    16   ar
    35    15     9    1
    36     6     1   ar
    37    29    24    1
    38    34    30    1
@<TRIPOS>MOLECULE
*****
 34 38 0 0 0
SMALL
GASTEIGER

@<TRIPOS>ATOM
      1 C         139.1026  140.0262  159.7543 C.ar    1  UNL1        0.0541
      2 C         137.8344  139.9659  160.5531 C.ar    1  UNL1        0.0180
      3 C         137.7995  139.2114  161.8492 C.ar    1  UNL1        0.0382
      4 C         139.0328  138.5174  162.3464 C.ar    1  UNL1        0.1385
      5 C         140.3010  138.5777  161.5476 C.ar    1  UNL1        0.0382
      6 C         140.3359  139.3320  160.2516 C.ar    1  UNL1        0.0180
      7 O         139.1330  142.3051  153.2694 O.2     1  UNL1       -0.2699
      8 C         139.2422  143.0438  154.5703 C.2     1  UNL1        0.2494
      9 N         139.2073  142.2894  155.8663 N.am    1  UNL1       -0.2660
     10 C         139.3165  143.0280  157.1673 C.3     1  UNL1        0.1160
     11 C         139.2816  142.2736  158.4633 C.3     1  UNL1        0.1197
     12 N         139.1375  140.7805  158.4583 N.am    1  UNL1       -0.2555
     13 C         139.0282  140.0419  157.1574 C.2     1  UNL1        0.2497
     14 O         138.8841  138.5489  157.1524 O.2     1  UNL1       -0.2727
     15 C         139.0631  140.7963  155.8614 C.3     1  UNL1        0.1799
     16 C         139.3863  144.5369  154.5752 C.ar    1  UNL1        0.0536
     17 C         140.6418  145.1709  154.0539 C.ar    1  UNL1        0.0054
     18 C         140.7858  146.6639  154.0588 C.ar    1  UNL1        0.0115
     19 C         139.6745  147.5229  154.5851 C.ar    1  UNL1        0.0577
     20 CL        139.8186  149.0160  154.5900 Cl      1  UNL1       -0.0822
     21 C         138.4190  146.8889  155.1064 C.ar    1  UNL1        0.0115
     22 C         138.2749  145.3959  155.1015 C.ar    1  UNL1        0.0054
     23 O         138.9979  137.7630  163.6424 O.3     1  UNL1       -0.4791
     24 C         139.2953  138.4713  164.9307 C.3     1  UNL1        0.1687
     25 C         138.2540  138.5366  166.0084 C.3     1  UNL1        0.0609
     26 C         138.5514  139.2449  167.2967 C.3     1  UNL1        0.0758
     27 N         139.8901  139.8879  167.5075 N.3     1  UNL1       -0.2737
     28 C         140.9315  139.8226  166.4298 C.3     1  UNL1        0.0758
     29 C         140.6341  139.1143  165.1414 C.3     1  UNL1        0.0609
     30 C         140.1875  140.5962  168.7958 C.3     1  UNL1        0.0575
     31 C         140.4647  139.9430  170.1175 C.3     1  UNL1        0.0160
     32 C         140.7084  141.0252  171.1272 C.3     1  UNL1        0.0014
     33 C         140.5818  142.3471  170.4297 C.3     1  UNL1        0.0014
     34 C         140.2599  142.0819  168.9888 C.3     1  UNL1        0.0160
@<TRIPOS>BOND
     1     7     8    2
     2     8    16    1
     3    16    17   ar
     4    17    18   ar
     5    18    19   ar
     6    19    20    1
     7    19    21   ar
     8    21    22   ar
     9     8     9   am
    10     9    10    1
    11    10    11    1
    12    11    12    1
    13    12     1    1
    14     1     2   ar
    15     2     3   ar
    16     3     4   ar
    17     4    23    1
    18    23    24    1
    19    24    25    1
    20    25    26    1
    21    26    27    1
    22    27    30    1
    23    30    31    1
    24    31    32    1
    25    32    33    1
    26    33    34    1
    27    27    28    1
    28    28    29    1
    29     4     5   ar
    30     5     6   ar
    31    12    13   am
    32    13    14    2
    33    13    15    1
    34    22    16   ar
    35    15     9    1
    36     6     1   ar
    37    29    24    1
    38    34    30    1
@<TRIPOS>MOLECULE
*****
 34 38 0 0 0
SMALL
GASTEIGER

@<TRIPOS>ATOM
      1 C         141.6821  143.9624  161.2628 C.ar    1  UNL1        0.0541
      2 C         140.7253  145.0632  160.9125 C.ar    1  UNL1        0.0180
      3 C         140.4743  145.4095  159.4747 C.ar    1  UNL1        0.0382
      4 C         141.1802  144.6551  158.3873 C.ar    1  UNL1        0.1385
      5 C         142.1370  143.5543  158.7376 C.ar    1  UNL1        0.0382
      6 C         142.3880  143.2079  160.1753 C.ar    1  UNL1        0.0180
      7 O         144.0268  142.8504  167.6279 O.2     1  UNL1       -0.2699
      8 C         142.6859  142.5771  167.0137 C.2     1  UNL1        0.2494
      9 N         142.4350  142.9234  165.5760 N.am    1  UNL1       -0.2660
     10 C         141.0941  142.6502  164.9617 C.3     1  UNL1        0.1160
     11 C         140.8431  142.9965  163.5239 C.3     1  UNL1        0.1197
     12 N         141.9331  143.6161  162.7005 N.am    1  UNL1       -0.2555
     13 C         143.2740  143.8894  163.3148 C.2     1  UNL1        0.2497
     14 O         144.3639  144.5089  162.4913 O.2     1  UNL1       -0.2727
     15 C         143.5249  143.5430  164.7525 C.3     1  UNL1        0.1799
     16 C         141.5959  141.9575  167.8372 C.ar    1  UNL1        0.0536
     17 C         141.1986  140.5301  167.6035 C.ar    1  UNL1        0.0054
     18 C         140.1086  139.9106  168.4270 C.ar    1  UNL1        0.0115
     19 C         139.4161  140.7184  169.4842 C.ar    1  UNL1        0.0577
     20 CL        138.3261  140.0988  170.3078 Cl      1  UNL1       -0.0822
     21 C         139.8135  142.1458  169.7180 C.ar    1  UNL1        0.0115
     22 C         140.9034  142.7653  168.8945 C.ar    1  UNL1        0.0054
     23 O         140.9292  145.0014  156.9496 O.3     1  UNL1       -0.4791
     24 C         139.7487  144.4167  156.2323 C.3     1  UNL1        0.1687
     25 C         139.1109  145.1677  155.1014 C.3     1  UNL1        0.0609
     26 C         137.9304  144.5830  154.3841 C.3     1  UNL1        0.0758
     27 N         137.3876  143.2473  154.7978 N.3     1  UNL1       -0.2737
     28 C         138.0254  142.4962  155.9288 C.3     1  UNL1        0.0758
     29 C         139.2059  143.0809  156.6461 C.3     1  UNL1        0.0609
     30 C         136.2071  142.6626  154.0805 C.3     1  UNL1        0.0575
     31 C         135.2306  141.6756  154.6484 C.3     1  UNL1        0.0160
     32 C         134.2158  141.3653  153.5882 C.3     1  UNL1        0.0014
     33 C         134.5651  142.1604  152.3652 C.3     1  UNL1        0.0014
     34 C         135.7958  142.9622  152.6695 C.3     1  UNL1        0.0160
@<TRIPOS>BOND
     1     7     8    2
     2     8    16    1
     3    16    17   ar
     4    17    18   ar
     5    18    19   ar
     6    19    20    1
     7    19    21   ar
     8    21    22   ar
     9     8     9   am
    10     9    10    1
    11    10    11    1
    12    11    12    1
    13    12     1    1
    14     1     2   ar
    15     2     3   ar
    16     3     4   ar
    17     4    23    1
    18    23    24    1
    19    24    25    1
    20    25    26    1
    21    26    27    1
    22    27    30    1
    23    30    31    1
    24    31    32    1
    25    32    33    1
    26    33    34    1
    27    27    28    1
    28    28    29    1
    29     4     5   ar
    30     5     6   ar
    31    12    13   am
    32    13    14    2
    33    13    15    1
    34    22    16   ar
    35    15     9    1
    36     6     1   ar
    37    29    24    1
    38    34    30    1
@<TRIPOS>MOLECULE
*****
 34 38 0 0 0
SMALL
GASTEIGER

@<TRIPOS>ATOM
      1 C         142.4518  140.4754  159.4612 C.ar    1  UNL1        0.0541
      2 C         141.1540  141.0425  159.9552 C.ar    1  UNL1        0.0180
      3 C         141.1525  142.0737  161.0445 C.ar    1  UNL1        0.0382
      4 C         142.4487  142.5378  161.6398 C.ar    1  UNL1        0.1385
      5 C         143.7465  141.9707  161.1458 C.ar    1  UNL1        0.0382
      6 C         143.7481  140.9395  160.0566 C.ar    1  UNL1        0.0180
      7 O         142.3439  136.7744  153.6698 O.2     1  UNL1       -0.2699
      8 C         142.4583  136.3505  155.1041 C.2     1  UNL1        0.2494
      9 N         142.4567  137.3817  156.1933 N.am    1  UNL1       -0.2660
     10 C         142.5710  136.9577  157.6276 C.3     1  UNL1        0.1160
     11 C         142.5694  137.9890  158.7169 C.3     1  UNL1        0.1197
     12 N         142.4534  139.4442  158.3719 N.am    1  UNL1       -0.2555
     13 C         142.3390  139.8681  156.9376 C.2     1  UNL1        0.2497
     14 O         142.2231  141.3232  156.5926 O.2     1  UNL1       -0.2727
     15 C         142.3407  138.8369  155.8483 C.3     1  UNL1        0.1799
     16 C         142.5743  134.8952  155.4490 C.ar    1  UNL1        0.0536
     17 C         143.8374  134.3683  156.0629 C.ar    1  UNL1        0.0054
     18 C         143.9533  132.9132  156.4078 C.ar    1  UNL1        0.0115
     19 C         142.8062  131.9849  156.1389 C.ar    1  UNL1        0.0577
     20 CL        142.9222  130.5297  156.4839 Cl      1  UNL1       -0.0822
     21 C         141.5430  132.5118  155.5251 C.ar    1  UNL1        0.0115
     22 C         141.4271  133.9670  155.1802 C.ar    1  UNL1        0.0054
     23 O         142.4471  143.5690  162.7291 O.3     1  UNL1       -0.4791
     24 C         142.2861  143.1484  164.1599 C.3     1  UNL1        0.1687
     25 C         140.9266  143.1494  164.7935 C.3     1  UNL1        0.0609
     26 C         140.7656  142.7287  166.2243 C.3     1  UNL1        0.0758
     27 N         141.9642  142.3070  167.0214 N.3     1  UNL1       -0.2737
     28 C         143.3239  142.3060  166.3878 C.3     1  UNL1        0.0758
     29 C         143.4848  142.7266  164.9570 C.3     1  UNL1        0.0609
     30 C         141.8033  141.8864  168.4522 C.3     1  UNL1        0.0575
     31 C         142.8131  141.1366  169.2697 C.3     1  UNL1        0.0160
     32 C         142.2382  140.9285  170.6395 C.3     1  UNL1        0.0014
     33 C         140.8731  141.5496  170.6685 C.3     1  UNL1        0.0014
     34 C         140.6044  142.1416  169.3168 C.3     1  UNL1        0.0160
@<TRIPOS>BOND
     1     7     8    2
     2     8    16    1
     3    16    17   ar
     4    17    18   ar
     5    18    19   ar
     6    19    20    1
     7    19    21   ar
     8    21    22   ar
     9     8     9   am
    10     9    10    1
    11    10    11    1
    12    11    12    1
    13    12     1    1
    14     1     2   ar
    15     2     3   ar
    16     3     4   ar
    17     4    23    1
    18    23    24    1
    19    24    25    1
    20    25    26    1
    21    26    27    1
    22    27    30    1
    23    30    31    1
    24    31    32    1
    25    32    33    1
    26    33    34    1
    27    27    28    1
    28    28    29    1
    29     4     5   ar
    30     5     6   ar
    31    12    13   am
    32    13    14    2
    33    13    15    1
    34    22    16   ar
    35    15     9    1
    36     6     1   ar
    37    29    24    1
    38    34    30    1
@<TRIPOS>MOLECULE
*****
 34 38 0 0 0
SMALL
GASTEIGER

@<TRIPOS>ATOM
      1 C         140.7005  139.2294  159.4320 C.ar    1  UNL1        0.0541
      2 C         141.3472  138.3893  160.4931 C.ar    1  UNL1        0.0180
      3 C         140.6255  138.1204  161.7803 C.ar    1  UNL1        0.0382
      4 C         139.2572  138.6917  162.0064 C.ar    1  UNL1        0.1385
      5 C         138.6104  139.5319  160.9453 C.ar    1  UNL1        0.0382
      6 C         139.3321  139.8007  159.6581 C.ar    1  UNL1        0.0180
      7 O         143.4160  139.3748  153.1189 O.2     1  UNL1       -0.2699
      8 C         143.5872  140.3049  154.2832 C.2     1  UNL1        0.2494
      9 N         142.8656  140.0360  155.5704 N.am    1  UNL1       -0.2660
     10 C         143.0368  140.9662  156.7346 C.3     1  UNL1        0.1160
     11 C         142.3151  140.6973  158.0219 C.3     1  UNL1        0.1197
     12 N         141.4222  139.4983  158.1448 N.am    1  UNL1       -0.2555
     13 C         141.2510  138.5681  156.9805 C.2     1  UNL1        0.2497
     14 O         140.3581  137.3691  157.1034 O.2     1  UNL1       -0.2727
     15 C         141.9726  138.8370  155.6933 C.3     1  UNL1        0.1799
     16 C         144.4801  141.5039  154.1602 C.ar    1  UNL1        0.0536
     17 C         145.9390  141.3895  154.4895 C.ar    1  UNL1        0.0054
     18 C         146.8319  142.5885  154.3666 C.ar    1  UNL1        0.0115
     19 C         146.2658  143.9019  153.9143 C.ar    1  UNL1        0.0577
     20 CL        147.1588  145.1010  153.7913 Cl      1  UNL1       -0.0822
     21 C         144.8069  144.0163  153.5850 C.ar    1  UNL1        0.0115
     22 C         143.9141  142.8173  153.7080 C.ar    1  UNL1        0.0054
     23 O         138.5355  138.4229  163.2936 O.3     1  UNL1       -0.4791
     24 C         138.8930  139.1945  164.5292 C.3     1  UNL1        0.1687
     25 C         138.4812  138.6835  165.8780 C.3     1  UNL1        0.0609
     26 C         138.8387  139.4552  167.1136 C.3     1  UNL1        0.0758
     27 N         139.6080  140.7378  167.0004 N.3     1  UNL1       -0.2737
     28 C         140.0199  141.2489  165.6516 C.3     1  UNL1        0.0758
     29 C         139.6624  140.4772  164.4160 C.3     1  UNL1        0.0609
     30 C         139.9655  141.5095  168.2360 C.3     1  UNL1        0.0575
     31 C         139.8433  141.0187  169.6483 C.3     1  UNL1        0.0160
     32 C         140.3103  142.1133  170.5614 C.3     1  UNL1        0.0014
     33 C         140.7211  143.2806  169.7136 C.3     1  UNL1        0.0014
     34 C         140.5080  142.9074  168.2764 C.3     1  UNL1        0.0160
@<TRIPOS>BOND
     1     7     8    2
     2     8    16    1
     3    16    17   ar
     4    17    18   ar
     5    18    19   ar
     6    19    20    1
     7    19    21   ar
     8    21    22   ar
     9     8     9   am
    10     9    10    1
    11    10    11    1
    12    11    12    1
    13    12     1    1
    14     1     2   ar
    15     2     3   ar
    16     3     4   ar
    17     4    23    1
    18    23    24    1
    19    24    25    1
    20    25    26    1
    21    26    27    1
    22    27    30    1
    23    30    31    1
    24    31    32    1
    25    32    33    1
    26    33    34    1
    27    27    28    1
    28    28    29    1
    29     4     5   ar
    30     5     6   ar
    31    12    13   am
    32    13    14    2
    33    13    15    1
    34    22    16   ar
    35    15     9    1
    36     6     1   ar
    37    29    24    1
    38    34    30    1
@<TRIPOS>MOLECULE
*****
 34 38 0 0 0
SMALL
GASTEIGER

@<TRIPOS>ATOM
      1 C         142.0065  140.1567  159.3166 C.ar    1  UNL1        0.0541
      2 C         142.7879  139.0350  158.6990 C.ar    1  UNL1        0.0180
      3 C         143.3035  139.1635  157.2963 C.ar    1  UNL1        0.0382
      4 C         143.0378  140.4136  156.5111 C.ar    1  UNL1        0.1385
      5 C         142.2564  141.5353  157.1286 C.ar    1  UNL1        0.0382
      6 C         141.7408  141.4068  158.5313 C.ar    1  UNL1        0.0180
      7 O         138.6990  138.8516  165.1993 O.2     1  UNL1       -0.2699
      8 C         139.9439  139.6429  164.9274 C.2     1  UNL1        0.2494
      9 N         140.4596  139.7713  163.5247 N.am    1  UNL1       -0.2660
     10 C         141.7045  140.5626  163.2528 C.3     1  UNL1        0.1160
     11 C         142.2201  140.6911  161.8500 C.3     1  UNL1        0.1197
     12 N         141.4908  140.0282  160.7192 N.am    1  UNL1       -0.2555
     13 C         140.2459  139.2369  160.9911 C.2     1  UNL1        0.2497
     14 O         139.5166  138.5741  159.8604 O.2     1  UNL1       -0.2727
     15 C         139.7302  139.1084  162.3938 C.3     1  UNL1        0.1799
     16 C         140.6732  140.3057  166.0582 C.ar    1  UNL1        0.0536
     17 C         140.2725  141.6801  166.5059 C.ar    1  UNL1        0.0054
     18 C         141.0018  142.3429  167.6367 C.ar    1  UNL1        0.0115
     19 C         142.1318  141.6313  168.3199 C.ar    1  UNL1        0.0577
     20 CL        142.8611  142.2942  169.4507 Cl      1  UNL1       -0.0822
     21 C         142.5326  140.2570  167.8722 C.ar    1  UNL1        0.0115
     22 C         141.8033  139.5942  166.7414 C.ar    1  UNL1        0.0054
     23 O         143.5534  140.5421  155.1084 O.3     1  UNL1       -0.4791
     24 C         144.9697  140.9729  154.8665 C.3     1  UNL1        0.1687
     25 C         145.8006  141.4910  156.0028 C.3     1  UNL1        0.0609
     26 C         147.2169  141.9218  155.7608 C.3     1  UNL1        0.0758
     27 N         147.8023  141.8344  154.3826 N.3     1  UNL1       -0.2737
     28 C         146.9715  141.3162  153.2462 C.3     1  UNL1        0.0758
     29 C         145.5552  140.8855  153.4882 C.3     1  UNL1        0.0609
     30 C         149.2186  142.2652  154.1407 C.3     1  UNL1        0.0575
     31 C         150.4305  141.7576  154.8646 C.3     1  UNL1        0.0160
     32 C         151.6325  142.4580  154.3036 C.3     1  UNL1        0.0014
     33 C         151.1637  143.3983  153.2331 C.3     1  UNL1        0.0014
     34 C         149.6718  143.2791  153.1325 C.3     1  UNL1        0.0160
@<TRIPOS>BOND
     1     7     8    2
     2     8    16    1
     3    16    17   ar
     4    17    18   ar
     5    18    19   ar
     6    19    20    1
     7    19    21   ar
     8    21    22   ar
     9     8     9   am
    10     9    10    1
    11    10    11    1
    12    11    12    1
    13    12     1    1
    14     1     2   ar
    15     2     3   ar
    16     3     4   ar
    17     4    23    1
    18    23    24    1
    19    24    25    1
    20    25    26    1
    21    26    27    1
    22    27    30    1
    23    30    31    1
    24    31    32    1
    25    32    33    1
    26    33    34    1
    27    27    28    1
    28    28    29    1
    29     4     5   ar
    30     5     6   ar
    31    12    13   am
    32    13    14    2
    33    13    15    1
    34    22    16   ar
    35    15     9    1
    36     6     1   ar
    37    29    24    1
    38    34    30    1
