@<TRIPOS>MOLECULE
*****
 45 51 0 0 0
SMALL
GASTEIGER

@<TRIPOS>ATOM
      1 C         138.0331  142.9697  163.7826 C.3     1  UNL1        0.0932
      2 C         137.8254  142.8290  162.3037 C.3     1  UNL1        0.0286
      3 C         137.6904  141.4662  161.6916 C.3     1  UNL1        0.0193
      4 C         137.7630  140.2441  162.5584 C.3     1  UNL1        0.0700
      5 C         137.9707  140.3849  164.0373 C.3     1  UNL1        0.0193
      6 C         138.1057  141.7476  164.6494 C.3     1  UNL1        0.0286
      7 C         137.8424  140.9698  162.9394 C.3     1  UNL1        0.1562
      8 O         137.9645  142.2020  163.4928 O.3     1  UNL1       -0.3572
      9 N         137.6280  138.8814  161.9464 N.3     1  UNL1       -0.2926
     10 H         136.9087  138.9518  161.2266 H       1  UNL1        0.1236
     11 C         138.8162  138.2247  161.3084 C.3     1  UNL1        0.1152
     12 C         140.1953  138.4995  161.8306 C.ar    1  UNL1        0.0765
     13 C         141.2326  139.1004  160.9291 C.ar    1  UNL1        0.0193
     14 C         142.6117  139.3752  161.4513 C.ar    1  UNL1        0.0411
     15 C         142.9533  139.0491  162.8750 C.ar    1  UNL1        0.1708
     16 C         141.9160  138.4482  163.7765 C.ar    1  UNL1        0.1682
     17 N         140.5369  138.1734  163.2543 N.ar    1  UNL1       -0.2304
     18 N         142.2576  138.1222  165.2002 N.am    1  UNL1       -0.2639
     19 C         143.6367  138.3970  165.7224 C.2     1  UNL1        0.2718
     20 O         143.9783  138.0709  167.1461 O.2     1  UNL1       -0.2707
     21 C         144.6741  138.9979  164.8208 C.3     1  UNL1        0.2898
     22 O         144.3324  139.3239  163.3971 O.3     1  UNL1       -0.4628
     23 H         141.5768  137.7278  165.7919 H       1  UNL1        0.1565
     24 C         138.1681  144.3325  164.3947 C.3     1  UNL1        0.0320
     25 C         139.5085  145.0043  164.4412 C.3     1  UNL1        0.0327
     26 C         143.3587  142.7246  164.9190 C.ar    1  UNL1        0.2249
     27 C         144.3028  142.5958  163.7606 C.ar    1  UNL1        0.0593
     28 C         143.9635  143.2269  162.4428 C.ar    1  UNL1        0.0254
     29 C         142.6800  143.9868  162.2835 C.ar    1  UNL1        0.0990
     30 N         142.3407  144.6179  160.9657 N.ar    1  UNL1       -0.2400
     31 C         141.0573  145.3778  160.8064 C.ar    1  UNL1        0.1281
     32 C         140.1132  145.5066  161.9650 C.ar    1  UNL1        0.1566
     33 F         138.8298  146.2665  161.8057 F       1  UNL1       -0.2028
     34 C         140.4525  144.8755  163.2827 C.ar    1  UNL1        0.0261
     35 C         141.7360  144.1156  163.4420 C.ar    1  UNL1        0.1002
     36 N         142.0753  143.4845  164.7598 N.ar    1  UNL1       -0.2104
     37 O         143.6981  142.0934  166.2369 O.3     1  UNL1       -0.4602
     38 C         142.6024  141.6598  167.1650 C.3     1  UNL1        0.2075
     39 C         141.6781  142.8358  169.6470 C.3     1  UNL1        0.1028
     40 C         143.1626  142.6985  169.8116 C.3     1  UNL1        0.0155
     41 C         142.5048  142.2532  168.5392 C.3     1  UNL1        0.0549
     42 C         140.3436  143.2513  170.1914 C.2     1  UNL1        0.3167
     43 O         140.0098  144.7073  170.3281 O.2     1  UNL1       -0.2501
     44 C         139.2627  140.9135  169.8508 C.3     1  UNL1        0.2556
     45 O         139.3430  142.2110  170.5992 O.3     1  UNL1       -0.4444
@<TRIPOS>BOND
     1    44    45    1
     2    45    42    1
     3    42    43    2
     4    39    42    1
     5    39    40    1
     6    40    41    1
     7    41    38    1
     8    38    37    1
     9    37    26    1
    10    26    27   ar
    11    27    28   ar
    12    28    29   ar
    13    29    30   ar
    14    30    31   ar
    15    31    32   ar
    16    32    33    1
    17    32    34   ar
    18    34    25    1
    19    25    24    1
    20    24     1    1
    21     1     2    1
    22     2     3    1
    23     3     4    1
    24     4     9    1
    25     9    11    1
    26    11    12    1
    27    12    13   ar
    28    13    14   ar
    29    14    15   ar
    30    15    16   ar
    31    16    17   ar
    32    16    18    1
    33    18    19   am
    34    19    20    2
    35    19    21    1
    36    21    22    1
    37     4     5    1
    38     5     6    1
    39     4     7    1
    40     7     8    1
    41    34    35   ar
    42    35    36   ar
    43    41    39    1
    44    36    26   ar
    45    35    29   ar
    46     6     1    1
    47     8     1    1
    48    17    12   ar
    49    22    15    1
    50     9    10    1
    51    18    23    1
@<TRIPOS>MOLECULE
*****
 45 51 0 0 0
SMALL
GASTEIGER

@<TRIPOS>ATOM
      1 C         141.7690  138.2127  164.0292 C.3     1  UNL1        0.0932
      2 C         142.4021  138.7781  165.2659 C.3     1  UNL1        0.0286
      3 C         143.6744  139.5661  165.1640 C.3     1  UNL1        0.0193
      4 C         144.3136  139.7886  163.8253 C.3     1  UNL1        0.0700
      5 C         143.6804  139.2232  162.5886 C.3     1  UNL1        0.0193
      6 C         142.4081  138.4353  162.6905 C.3     1  UNL1        0.0286
      7 C         143.6166  139.3502  163.8311 C.3     1  UNL1        0.1562
      8 O         142.4661  138.6378  163.9233 O.3     1  UNL1       -0.3572
      9 N         145.5859  140.5765  163.7234 N.3     1  UNL1       -0.2926
     10 H         146.2918  139.9477  163.3404 H       1  UNL1        0.1236
     11 C         145.6284  141.8289  162.8989 C.3     1  UNL1        0.1152
     12 C         144.4772  142.7899  162.9346 C.ar    1  UNL1        0.0765
     13 C         144.0783  143.4346  164.2289 C.ar    1  UNL1        0.0193
     14 C         142.9271  144.3955  164.2646 C.ar    1  UNL1        0.0411
     15 C         142.1748  144.7118  163.0060 C.ar    1  UNL1        0.1708
     16 C         142.5737  144.0671  161.7117 C.ar    1  UNL1        0.1682
     17 N         143.7249  143.1061  161.6760 N.ar    1  UNL1       -0.2304
     18 N         141.8214  144.3833  160.4532 N.am    1  UNL1       -0.2639
     19 C         140.6702  145.3443  160.4889 C.2     1  UNL1        0.2718
     20 O         139.9180  145.6606  159.2303 O.2     1  UNL1       -0.2707
     21 C         140.2713  145.9890  161.7832 C.3     1  UNL1        0.2898
     22 O         141.0236  145.6728  163.0418 O.3     1  UNL1       -0.4628
     23 H         142.0832  143.9602  159.6037 H       1  UNL1        0.1565
     24 C         140.4966  137.4248  164.1311 C.3     1  UNL1        0.0320
     25 C         139.2137  138.1148  164.4888 C.3     1  UNL1        0.0327
     26 C         139.7594  142.3923  165.7754 C.ar    1  UNL1        0.2249
     27 C         139.2417  143.5063  164.9146 C.ar    1  UNL1        0.0593
     28 C         138.5421  143.1944  163.6250 C.ar    1  UNL1        0.0254
     29 C         138.3602  141.7686  163.1961 C.ar    1  UNL1        0.0990
     30 N         137.6605  141.4568  161.9064 N.ar    1  UNL1       -0.2400
     31 C         137.4786  140.0310  161.4775 C.ar    1  UNL1        0.1281
     32 C         137.9964  138.9170  162.3383 C.ar    1  UNL1        0.1566
     33 F         137.8145  137.4911  161.9095 F       1  UNL1       -0.2028
     34 C         138.6960  139.2288  163.6280 C.ar    1  UNL1        0.0261
     35 C         138.8779  140.6546  164.0569 C.ar    1  UNL1        0.1002
     36 N         139.5775  140.9665  165.3465 N.ar    1  UNL1       -0.2104
     37 O         140.4590  142.7041  167.0651 O.3     1  UNL1       -0.4602
     38 C         141.7883  142.0784  167.3676 C.3     1  UNL1        0.2075
     39 C         141.4244  140.4129  169.7110 C.3     1  UNL1        0.1028
     40 C         142.5480  139.7731  168.9506 C.3     1  UNL1        0.0155
     41 C         141.8943  141.0144  168.4197 C.3     1  UNL1        0.0549
     42 C         140.5044  140.4350  170.8954 C.2     1  UNL1        0.3167
     43 O         140.7817  141.3599  172.0433 O.2     1  UNL1       -0.2501
     44 C         138.0301  139.9526  170.2667 C.3     1  UNL1        0.2556
     45 O         139.3070  139.5322  170.9320 O.3     1  UNL1       -0.4444
@<TRIPOS>BOND
     1    44    45    1
     2    45    42    1
     3    42    43    2
     4    39    42    1
     5    39    40    1
     6    40    41    1
     7    41    38    1
     8    38    37    1
     9    37    26    1
    10    26    27   ar
    11    27    28   ar
    12    28    29   ar
    13    29    30   ar
    14    30    31   ar
    15    31    32   ar
    16    32    33    1
    17    32    34   ar
    18    34    25    1
    19    25    24    1
    20    24     1    1
    21     1     2    1
    22     2     3    1
    23     3     4    1
    24     4     9    1
    25     9    11    1
    26    11    12    1
    27    12    13   ar
    28    13    14   ar
    29    14    15   ar
    30    15    16   ar
    31    16    17   ar
    32    16    18    1
    33    18    19   am
    34    19    20    2
    35    19    21    1
    36    21    22    1
    37     4     5    1
    38     5     6    1
    39     4     7    1
    40     7     8    1
    41    34    35   ar
    42    35    36   ar
    43    41    39    1
    44    36    26   ar
    45    35    29   ar
    46     6     1    1
    47     8     1    1
    48    17    12   ar
    49    22    15    1
    50     9    10    1
    51    18    23    1
@<TRIPOS>MOLECULE
*****
 45 51 0 0 0
SMALL
GASTEIGER

@<TRIPOS>ATOM
      1 C         138.4258  140.0321  164.7725 C.3     1  UNL1        0.0932
      2 C         139.2429  140.9582  165.6237 C.3     1  UNL1        0.0286
      3 C         139.1828  142.4390  165.3921 C.3     1  UNL1        0.0193
      4 C         138.3055  142.9937  164.3091 C.3     1  UNL1        0.0700
      5 C         137.4883  142.0675  163.4579 C.3     1  UNL1        0.0193
      6 C         137.5485  140.5868  163.6896 C.3     1  UNL1        0.0286
      7 C         138.3055  142.1751  164.3985 C.3     1  UNL1        0.1562
      8 O         138.3599  140.8362  164.6080 O.3     1  UNL1       -0.3572
      9 N         138.2454  144.4744  164.0774 N.3     1  UNL1       -0.2926
     10 H         138.5777  144.9200  164.9326 H       1  UNL1        0.1236
     11 C         139.0120  145.0878  162.9434 C.3     1  UNL1        0.1152
     12 C         140.4308  144.6742  162.6868 C.ar    1  UNL1        0.0765
     13 C         141.5314  145.1805  163.5713 C.ar    1  UNL1        0.0193
     14 C         142.9501  144.7669  163.3146 C.ar    1  UNL1        0.0411
     15 C         143.2684  143.8468  162.1735 C.ar    1  UNL1        0.1708
     16 C         142.1679  143.3405  161.2889 C.ar    1  UNL1        0.1682
     17 N         140.7491  143.7541  161.5456 N.ar    1  UNL1       -0.2304
     18 N         142.4861  142.4205  160.1478 N.am    1  UNL1       -0.2639
     19 C         143.9049  142.0068  159.8911 C.2     1  UNL1        0.2718
     20 O         144.2232  141.0868  158.7499 O.2     1  UNL1       -0.2707
     21 C         145.0055  142.5132  160.7757 C.3     1  UNL1        0.2898
     22 O         144.6873  143.4332  161.9168 O.3     1  UNL1       -0.4628
     23 H         141.7638  142.0881  159.5672 H       1  UNL1        0.1565
     24 C         138.4859  138.5513  165.0042 C.3     1  UNL1        0.0320
     25 C         139.2342  137.6721  164.0466 C.3     1  UNL1        0.0327
     26 C         143.1484  138.8094  165.9533 C.ar    1  UNL1        0.2249
     27 C         144.2524  139.3825  165.1151 C.ar    1  UNL1        0.0593
     28 C         144.0517  139.5766  163.6413 C.ar    1  UNL1        0.0254
     29 C         142.7470  139.1975  163.0058 C.ar    1  UNL1        0.0990
     30 N         142.5463  139.3915  161.5319 N.ar    1  UNL1       -0.2400
     31 C         141.2416  139.0124  160.8963 C.ar    1  UNL1        0.1281
     32 C         140.1375  138.4393  161.7346 C.ar    1  UNL1        0.1566
     33 F         138.8328  138.0602  161.0990 F       1  UNL1       -0.2028
     34 C         140.3382  138.2452  163.2084 C.ar    1  UNL1        0.0261
     35 C         141.6430  138.6243  163.8439 C.ar    1  UNL1        0.1002
     36 N         141.8437  138.4303  165.3177 N.ar    1  UNL1       -0.2104
     37 O         143.3491  138.6153  167.4271 O.3     1  UNL1       -0.4602
     38 C         142.6185  139.4873  168.4047 C.3     1  UNL1        0.2075
     39 C         142.6133  142.3308  168.9635 C.3     1  UNL1        0.1028
     40 C         143.1472  142.2105  167.5669 C.3     1  UNL1        0.0155
     41 C         142.7588  140.9789  168.3300 C.3     1  UNL1        0.0549
     42 C         142.2210  143.1807  170.1355 C.2     1  UNL1        0.3167
     43 O         143.2765  143.8668  170.9510 O.2     1  UNL1       -0.2501
     44 C         139.8165  142.2080  170.2847 C.3     1  UNL1        0.2556
     45 O         140.7732  143.3445  170.4920 O.3     1  UNL1       -0.4444
@<TRIPOS>BOND
     1    44    45    1
     2    45    42    1
     3    42    43    2
     4    39    42    1
     5    39    40    1
     6    40    41    1
     7    41    38    1
     8    38    37    1
     9    37    26    1
    10    26    27   ar
    11    27    28   ar
    12    28    29   ar
    13    29    30   ar
    14    30    31   ar
    15    31    32   ar
    16    32    33    1
    17    32    34   ar
    18    34    25    1
    19    25    24    1
    20    24     1    1
    21     1     2    1
    22     2     3    1
    23     3     4    1
    24     4     9    1
    25     9    11    1
    26    11    12    1
    27    12    13   ar
    28    13    14   ar
    29    14    15   ar
    30    15    16   ar
    31    16    17   ar
    32    16    18    1
    33    18    19   am
    34    19    20    2
    35    19    21    1
    36    21    22    1
    37     4     5    1
    38     5     6    1
    39     4     7    1
    40     7     8    1
    41    34    35   ar
    42    35    36   ar
    43    41    39    1
    44    36    26   ar
    45    35    29   ar
    46     6     1    1
    47     8     1    1
    48    17    12   ar
    49    22    15    1
    50     9    10    1
    51    18    23    1
@<TRIPOS>MOLECULE
*****
 45 51 0 0 0
SMALL
GASTEIGER

@<TRIPOS>ATOM
      1 C         143.6606  143.5016  164.2855 C.3     1  UNL1        0.0932
      2 C         143.3798  144.4719  163.1767 C.3     1  UNL1        0.0286
      3 C         141.9983  145.0288  162.9993 C.3     1  UNL1        0.0193
      4 C         140.8976  144.6152  163.9306 C.3     1  UNL1        0.0700
      5 C         141.1785  143.6447  165.0395 C.3     1  UNL1        0.0193
      6 C         142.5600  143.0880  165.2169 C.3     1  UNL1        0.0286
      7 C         141.6386  144.2832  164.0675 C.3     1  UNL1        0.1562
      8 O         142.8878  143.7797  164.2279 O.3     1  UNL1       -0.3572
      9 N         139.5162  145.1719  163.7532 N.3     1  UNL1       -0.2926
     10 H         139.4633  145.5302  162.7997 H       1  UNL1        0.1236
     11 C         138.3204  144.2882  163.9507 C.3     1  UNL1        0.1152
     12 C         138.3897  142.8375  163.5756 C.ar    1  UNL1        0.0765
     13 C         138.0185  141.7851  164.5780 C.ar    1  UNL1        0.0193
     14 C         138.0879  140.3345  164.2029 C.ar    1  UNL1        0.0411
     15 C         138.5285  139.9362  162.8255 C.ar    1  UNL1        0.1708
     16 C         138.8997  140.9885  161.8231 C.ar    1  UNL1        0.1682
     17 N         138.8303  142.4392  162.1982 N.ar    1  UNL1       -0.2304
     18 N         139.3403  140.5902  160.4457 N.am    1  UNL1       -0.2639
     19 C         139.4097  139.1396  160.0707 C.2     1  UNL1        0.2718
     20 O         139.8503  138.7413  158.6933 O.2     1  UNL1       -0.2707
     21 C         139.0385  138.0871  161.0730 C.3     1  UNL1        0.2898
     22 O         138.5979  138.4854  162.4504 O.3     1  UNL1       -0.4628
     23 H         139.5840  141.2810  159.7879 H       1  UNL1        0.1565
     24 C         145.0421  142.9447  164.4629 C.3     1  UNL1        0.0320
     25 C         145.4820  141.7588  163.6567 C.3     1  UNL1        0.0327
     26 C         143.0771  138.6989  165.9157 C.ar    1  UNL1        0.2249
     27 C         142.0609  137.8629  165.1956 C.ar    1  UNL1        0.0593
     28 C         141.8464  138.0469  163.7225 C.ar    1  UNL1        0.0254
     29 C         142.6481  139.0669  162.9695 C.ar    1  UNL1        0.0990
     30 N         142.4336  139.2509  161.4963 N.ar    1  UNL1       -0.2400
     31 C         143.2352  140.2709  160.7433 C.ar    1  UNL1        0.1281
     32 C         144.2514  141.1068  161.4635 C.ar    1  UNL1        0.1566
     33 F         145.0530  142.1268  160.7105 F       1  UNL1       -0.2028
     34 C         144.4659  140.9228  162.9366 C.ar    1  UNL1        0.0261
     35 C         143.6642  139.9029  163.6896 C.ar    1  UNL1        0.1002
     36 N         143.8787  139.7189  165.1627 N.ar    1  UNL1       -0.2104
     37 O         143.2916  138.5149  167.3889 O.3     1  UNL1       -0.4602
     38 C         142.6773  139.4769  168.3621 C.3     1  UNL1        0.2075
     39 C         139.9505  140.3653  168.7773 C.3     1  UNL1        0.1028
     40 C         140.0908  140.2243  167.2905 C.3     1  UNL1        0.0155
     41 C         141.2536  139.9152  168.1862 C.3     1  UNL1        0.0549
     42 C         139.1171  140.7065  169.9769 C.2     1  UNL1        0.3167
     43 O         138.0937  139.7325  170.4806 O.2     1  UNL1       -0.2501
     44 C         140.1496  143.0897  170.0406 C.3     1  UNL1        0.2556
     45 O         139.3072  142.0216  170.6727 O.3     1  UNL1       -0.4444
@<TRIPOS>BOND
     1    44    45    1
     2    45    42    1
     3    42    43    2
     4    39    42    1
     5    39    40    1
     6    40    41    1
     7    41    38    1
     8    38    37    1
     9    37    26    1
    10    26    27   ar
    11    27    28   ar
    12    28    29   ar
    13    29    30   ar
    14    30    31   ar
    15    31    32   ar
    16    32    33    1
    17    32    34   ar
    18    34    25    1
    19    25    24    1
    20    24     1    1
    21     1     2    1
    22     2     3    1
    23     3     4    1
    24     4     9    1
    25     9    11    1
    26    11    12    1
    27    12    13   ar
    28    13    14   ar
    29    14    15   ar
    30    15    16   ar
    31    16    17   ar
    32    16    18    1
    33    18    19   am
    34    19    20    2
    35    19    21    1
    36    21    22    1
    37     4     5    1
    38     5     6    1
    39     4     7    1
    40     7     8    1
    41    34    35   ar
    42    35    36   ar
    43    41    39    1
    44    36    26   ar
    45    35    29   ar
    46     6     1    1
    47     8     1    1
    48    17    12   ar
    49    22    15    1
    50     9    10    1
    51    18    23    1
@<TRIPOS>MOLECULE
*****
 45 51 0 0 0
SMALL
GASTEIGER

@<TRIPOS>ATOM
      1 C         143.3978  142.5412  164.3662 C.3     1  UNL1        0.0932
      2 C         143.9378  143.4197  163.2770 C.3     1  UNL1        0.0286
      3 C         143.1680  144.6304  162.8389 C.3     1  UNL1        0.0193
      4 C         141.8581  144.9624  163.4902 C.3     1  UNL1        0.0700
      5 C         141.3182  144.0838  164.5795 C.3     1  UNL1        0.0193
      6 C         142.0880  142.8732  165.0175 C.3     1  UNL1        0.0286
      7 C         142.2440  144.2885  163.7640 C.3     1  UNL1        0.1562
      8 O         142.9401  143.1939  164.1601 O.3     1  UNL1       -0.3572
      9 N         141.0883  146.1730  163.0522 N.3     1  UNL1       -0.2926
     10 H         141.7577  146.8041  162.6118 H       1  UNL1        0.1236
     11 C         139.9393  146.0267  162.0992 C.3     1  UNL1        0.1152
     12 C         139.2525  144.7015  161.9501 C.ar    1  UNL1        0.0765
     13 C         138.3098  144.2214  163.0135 C.ar    1  UNL1        0.0193
     14 C         137.6231  142.8963  162.8644 C.ar    1  UNL1        0.0411
     15 C         137.8791  142.0511  161.6519 C.ar    1  UNL1        0.1708
     16 C         138.8218  142.5312  160.5885 C.ar    1  UNL1        0.1682
     17 N         139.5085  143.8563  160.7376 N.ar    1  UNL1       -0.2304
     18 N         139.0777  141.6860  159.3760 N.am    1  UNL1       -0.2639
     19 C         138.3910  140.3608  159.2268 C.2     1  UNL1        0.2718
     20 O         138.6470  139.5157  158.0143 O.2     1  UNL1       -0.2707
     21 C         137.4483  139.8807  160.2903 C.3     1  UNL1        0.2898
     22 O         137.1923  140.7259  161.5028 O.3     1  UNL1       -0.4628
     23 H         139.6965  142.0011  158.6780 H       1  UNL1        0.1565
     24 C         144.1676  141.3306  164.8043 C.3     1  UNL1        0.0320
     25 C         143.5799  139.9623  164.6239 C.3     1  UNL1        0.0327
     26 C         139.5270  138.0162  164.4343 C.ar    1  UNL1        0.2249
     27 C         138.9476  137.6175  163.1094 C.ar    1  UNL1        0.0593
     28 C         139.7193  137.8675  161.8477 C.ar    1  UNL1        0.0254
     29 C         141.0703  138.5163  161.9109 C.ar    1  UNL1        0.0990
     30 N         141.8420  138.7663  160.6491 N.ar    1  UNL1       -0.2400
     31 C         143.1929  139.4150  160.7123 C.ar    1  UNL1        0.1281
     32 C         143.7723  139.8137  162.0372 C.ar    1  UNL1        0.1566
     33 F         145.1233  140.4624  162.1004 F       1  UNL1       -0.2028
     34 C         143.0006  139.5637  163.2990 C.ar    1  UNL1        0.0261
     35 C         141.6496  138.9149  163.2358 C.ar    1  UNL1        0.1002
     36 N         140.8780  138.6649  164.4975 N.ar    1  UNL1       -0.2104
     37 O         138.7553  137.7661  165.6961 O.3     1  UNL1       -0.4602
     38 C         138.2532  138.9219  166.5097 C.3     1  UNL1        0.2075
     39 C         139.5806  140.3099  168.6798 C.3     1  UNL1        0.1028
     40 C         140.4818  140.4907  167.4944 C.3     1  UNL1        0.0155
     41 C         139.2061  139.7142  167.3550 C.3     1  UNL1        0.0549
     42 C         139.2765  140.5494  170.1289 C.2     1  UNL1        0.3167
     43 O         139.2035  139.3927  171.0810 O.2     1  UNL1       -0.2501
     44 C         140.0344  143.0280  170.3088 C.3     1  UNL1        0.2556
     45 O         139.0454  141.9457  170.6260 O.3     1  UNL1       -0.4444
@<TRIPOS>BOND
     1    44    45    1
     2    45    42    1
     3    42    43    2
     4    39    42    1
     5    39    40    1
     6    40    41    1
     7    41    38    1
     8    38    37    1
     9    37    26    1
    10    26    27   ar
    11    27    28   ar
    12    28    29   ar
    13    29    30   ar
    14    30    31   ar
    15    31    32   ar
    16    32    33    1
    17    32    34   ar
    18    34    25    1
    19    25    24    1
    20    24     1    1
    21     1     2    1
    22     2     3    1
    23     3     4    1
    24     4     9    1
    25     9    11    1
    26    11    12    1
    27    12    13   ar
    28    13    14   ar
    29    14    15   ar
    30    15    16   ar
    31    16    17   ar
    32    16    18    1
    33    18    19   am
    34    19    20    2
    35    19    21    1
    36    21    22    1
    37     4     5    1
    38     5     6    1
    39     4     7    1
    40     7     8    1
    41    34    35   ar
    42    35    36   ar
    43    41    39    1
    44    36    26   ar
    45    35    29   ar
    46     6     1    1
    47     8     1    1
    48    17    12   ar
    49    22    15    1
    50     9    10    1
    51    18    23    1
@<TRIPOS>MOLECULE
*****
 45 51 0 0 0
SMALL
GASTEIGER

@<TRIPOS>ATOM
      1 C         138.6932  143.1833  163.7294 C.3     1  UNL1        0.0932
      2 C         139.3396  142.8957  165.0521 C.3     1  UNL1        0.0286
      3 C         139.1643  141.5525  165.6963 C.3     1  UNL1        0.0193
      4 C         138.3426  140.4968  165.0178 C.3     1  UNL1        0.0700
      5 C         137.6962  140.7844  163.6951 C.3     1  UNL1        0.0193
      6 C         137.8716  142.1276  163.0509 C.3     1  UNL1        0.0286
      7 C         138.4101  141.2178  164.6260 C.3     1  UNL1        0.1562
      8 O         138.5687  142.4324  164.0435 O.3     1  UNL1       -0.3572
      9 N         138.1672  139.1536  165.6620 N.3     1  UNL1       -0.2926
     10 H         137.1988  138.8753  165.5038 H       1  UNL1        0.1236
     11 C         139.0247  137.9994  165.2349 C.3     1  UNL1        0.1152
     12 C         140.3142  138.2505  164.5109 C.ar    1  UNL1        0.0765
     13 C         141.5218  138.7161  165.2692 C.ar    1  UNL1        0.0193
     14 C         142.8112  138.9672  164.5452 C.ar    1  UNL1        0.0411
     15 C         142.8931  138.7528  163.0629 C.ar    1  UNL1        0.1708
     16 C         141.6856  138.2873  162.3046 C.ar    1  UNL1        0.1682
     17 N         140.3962  138.0361  163.0286 N.ar    1  UNL1       -0.2304
     18 N         141.7675  138.0729  160.8222 N.am    1  UNL1       -0.2639
     19 C         143.0569  138.3241  160.0982 C.2     1  UNL1        0.2718
     20 O         143.1388  138.1097  158.6159 O.2     1  UNL1       -0.2707
     21 C         144.2646  138.7896  160.8565 C.3     1  UNL1        0.2898
     22 O         144.1826  139.0040  162.3389 O.3     1  UNL1       -0.4628
     23 H         140.9749  137.7674  160.3245 H       1  UNL1        0.1565
     24 C         138.8686  144.5265  163.0851 C.3     1  UNL1        0.0320
     25 C         140.2322  145.1458  163.0013 C.3     1  UNL1        0.0327
     26 C         143.7847  142.9965  164.7362 C.ar    1  UNL1        0.2249
     27 C         144.8218  142.4066  163.8271 C.ar    1  UNL1        0.0593
     28 C         144.6746  142.5331  162.3398 C.ar    1  UNL1        0.0254
     29 C         143.4905  143.2496  161.7615 C.ar    1  UNL1        0.0990
     30 N         143.3434  143.3761  160.2740 N.ar    1  UNL1       -0.2400
     31 C         142.1592  144.0925  159.6957 C.ar    1  UNL1        0.1281
     32 C         141.1221  144.6825  160.6049 C.ar    1  UNL1        0.1566
     33 F         139.9379  145.3989  160.0266 F       1  UNL1       -0.2028
     34 C         141.2692  144.5559  162.0922 C.ar    1  UNL1        0.0261
     35 C         142.4534  143.8395  162.6705 C.ar    1  UNL1        0.1002
     36 N         142.6005  143.7129  164.1579 N.ar    1  UNL1       -0.2104
     37 O         143.9318  142.8700  166.2236 O.3     1  UNL1       -0.4602
     38 C         142.8803  142.1597  167.0235 C.3     1  UNL1        0.2075
     39 C         142.3416  141.8479  169.8537 C.3     1  UNL1        0.1028
     40 C         143.7466  142.3680  169.7810 C.3     1  UNL1        0.0155
     41 C         142.9681  142.1319  168.5208 C.3     1  UNL1        0.0549
     42 C         141.1687  141.3836  170.6653 C.2     1  UNL1        0.3167
     43 O         140.7971  142.1048  171.9269 O.2     1  UNL1       -0.2501
     44 C         138.9145  140.3589  169.8789 C.3     1  UNL1        0.2556
     45 O         140.3674  140.1981  170.2153 O.3     1  UNL1       -0.4444
@<TRIPOS>BOND
     1    44    45    1
     2    45    42    1
     3    42    43    2
     4    39    42    1
     5    39    40    1
     6    40    41    1
     7    41    38    1
     8    38    37    1
     9    37    26    1
    10    26    27   ar
    11    27    28   ar
    12    28    29   ar
    13    29    30   ar
    14    30    31   ar
    15    31    32   ar
    16    32    33    1
    17    32    34   ar
    18    34    25    1
    19    25    24    1
    20    24     1    1
    21     1     2    1
    22     2     3    1
    23     3     4    1
    24     4     9    1
    25     9    11    1
    26    11    12    1
    27    12    13   ar
    28    13    14   ar
    29    14    15   ar
    30    15    16   ar
    31    16    17   ar
    32    16    18    1
    33    18    19   am
    34    19    20    2
    35    19    21    1
    36    21    22    1
    37     4     5    1
    38     5     6    1
    39     4     7    1
    40     7     8    1
    41    34    35   ar
    42    35    36   ar
    43    41    39    1
    44    36    26   ar
    45    35    29   ar
    46     6     1    1
    47     8     1    1
    48    17    12   ar
    49    22    15    1
    50     9    10    1
    51    18    23    1
@<TRIPOS>MOLECULE
*****
 45 51 0 0 0
SMALL
GASTEIGER

@<TRIPOS>ATOM
      1 C         140.0425  143.6107  164.5471 C.3     1  UNL1        0.0932
      2 C         140.8913  143.9973  163.3725 C.3     1  UNL1        0.0286
      3 C         142.3632  143.7081  163.3832 C.3     1  UNL1        0.0193
      4 C         142.9861  143.0323  164.5686 C.3     1  UNL1        0.0700
      5 C         142.1372  142.6457  165.7433 C.3     1  UNL1        0.0193
      6 C         140.6654  142.9349  165.7326 C.3     1  UNL1        0.0286
      7 C         142.1753  143.1701  164.6086 C.3     1  UNL1        0.1562
      8 O         140.8445  143.4316  164.5989 O.3     1  UNL1       -0.3572
      9 N         144.4579  142.7431  164.5793 N.3     1  UNL1       -0.2926
     10 H         144.8035  143.0087  165.5015 H       1  UNL1        0.1236
     11 C         144.9505  141.3509  164.3168 C.3     1  UNL1        0.1152
     12 C         144.2179  140.4653  163.3528 C.ar    1  UNL1        0.0765
     13 C         143.2072  139.4796  163.8593 C.ar    1  UNL1        0.0193
     14 C         142.4747  138.5942  162.8953 C.ar    1  UNL1        0.0411
     15 C         142.7529  138.6944  161.4248 C.ar    1  UNL1        0.1708
     16 C         143.7637  139.6802  160.9182 C.ar    1  UNL1        0.1682
     17 N         144.4962  140.5656  161.8822 N.ar    1  UNL1       -0.2304
     18 N         144.0419  139.7804  159.4477 N.am    1  UNL1       -0.2639
     19 C         143.3094  138.8950  158.4837 C.2     1  UNL1        0.2718
     20 O         143.5876  138.9953  157.0131 O.2     1  UNL1       -0.2707
     21 C         142.2985  137.9092  158.9902 C.3     1  UNL1        0.2898
     22 O         142.0203  137.8089  160.4608 O.3     1  UNL1       -0.4628
     23 H         144.7053  140.4274  159.1152 H       1  UNL1        0.1565
     24 C         138.5706  143.8999  164.5365 C.3     1  UNL1        0.0320
     25 C         137.5910  142.7948  164.2738 C.3     1  UNL1        0.0327
     26 C         138.4194  138.7889  166.1490 C.ar    1  UNL1        0.2249
     27 C         138.8143  137.6253  165.2888 C.ar    1  UNL1        0.0593
     28 C         138.9332  137.7971  163.8034 C.ar    1  UNL1        0.0254
     29 C         138.6571  139.1324  163.1783 C.ar    1  UNL1        0.0990
     30 N         138.7759  139.3041  161.6929 N.ar    1  UNL1       -0.2400
     31 C         138.4998  140.6394  161.0678 C.ar    1  UNL1        0.1281
     32 C         138.1048  141.8030  161.9281 C.ar    1  UNL1        0.1566
     33 F         137.8287  143.1383  161.3031 F       1  UNL1       -0.2028
     34 C         137.9860  141.6312  163.4135 C.ar    1  UNL1        0.0261
     35 C         138.2621  140.2959  164.0386 C.ar    1  UNL1        0.1002
     36 N         138.1433  140.1242  165.5239 N.ar    1  UNL1       -0.2104
     37 O         138.3005  138.6171  167.6345 O.3     1  UNL1       -0.4602
     38 C         138.5625  139.7784  168.5470 C.3     1  UNL1        0.2075
     39 C         140.8731  141.4455  169.0754 C.3     1  UNL1        0.1028
     40 C         141.4325  140.1764  168.5042 C.3     1  UNL1        0.0155
     41 C         139.9507  140.3318  168.6772 C.3     1  UNL1        0.0549
     42 C         141.0827  142.8213  169.6351 C.2     1  UNL1        0.3167
     43 O         140.0862  143.9060  169.3517 O.2     1  UNL1       -0.2501
     44 C         143.6374  142.6085  170.0573 C.3     1  UNL1        0.2556
     45 O         142.2887  143.1123  170.4782 O.3     1  UNL1       -0.4444
@<TRIPOS>BOND
     1    44    45    1
     2    45    42    1
     3    42    43    2
     4    39    42    1
     5    39    40    1
     6    40    41    1
     7    41    38    1
     8    38    37    1
     9    37    26    1
    10    26    27   ar
    11    27    28   ar
    12    28    29   ar
    13    29    30   ar
    14    30    31   ar
    15    31    32   ar
    16    32    33    1
    17    32    34   ar
    18    34    25    1
    19    25    24    1
    20    24     1    1
    21     1     2    1
    22     2     3    1
    23     3     4    1
    24     4     9    1
    25     9    11    1
    26    11    12    1
    27    12    13   ar
    28    13    14   ar
    29    14    15   ar
    30    15    16   ar
    31    16    17   ar
    32    16    18    1
    33    18    19   am
    34    19    20    2
    35    19    21    1
    36    21    22    1
    37     4     5    1
    38     5     6    1
    39     4     7    1
    40     7     8    1
    41    34    35   ar
    42    35    36   ar
    43    41    39    1
    44    36    26   ar
    45    35    29   ar
    46     6     1    1
    47     8     1    1
    48    17    12   ar
    49    22    15    1
    50     9    10    1
    51    18    23    1
@<TRIPOS>MOLECULE
*****
 45 51 0 0 0
SMALL
GASTEIGER

@<TRIPOS>ATOM
      1 C         137.8637  141.1183  161.1783 C.3     1  UNL1        0.0932
      2 C         137.3817  140.9369  162.5871 C.3     1  UNL1        0.0286
      3 C         137.5190  142.0558  163.5767 C.3     1  UNL1        0.0193
      4 C         138.1383  143.3560  163.1575 C.3     1  UNL1        0.0700
      5 C         138.6203  143.5374  161.7486 C.3     1  UNL1        0.0193
      6 C         138.4830  142.4186  160.7591 C.3     1  UNL1        0.0286
      7 C         138.0845  142.7718  162.5798 C.3     1  UNL1        0.1562
      8 O         137.9603  141.7601  161.6850 O.3     1  UNL1       -0.3572
      9 N         138.2755  144.4749  164.1471 N.3     1  UNL1       -0.2926
     10 H         137.4573  144.4328  164.7546 H       1  UNL1        0.1236
     11 C         139.4769  144.5407  165.0428 C.3     1  UNL1        0.1152
     12 C         140.8291  144.1657  164.5127 C.ar    1  UNL1        0.0765
     13 C         141.6058  145.1425  163.6805 C.ar    1  UNL1        0.0193
     14 C         142.9579  144.7675  163.1504 C.ar    1  UNL1        0.0411
     15 C         143.5334  143.4156  163.4526 C.ar    1  UNL1        0.1708
     16 C         142.7568  142.4388  164.2848 C.ar    1  UNL1        0.1682
     17 N         141.4046  142.8138  164.8149 N.ar    1  UNL1       -0.2304
     18 N         143.3323  141.0870  164.5870 N.am    1  UNL1       -0.2639
     19 C         144.6844  140.7119  164.0569 C.2     1  UNL1        0.2718
     20 O         145.2600  139.3601  164.3591 O.2     1  UNL1       -0.2707
     21 C         145.4612  141.6888  163.2247 C.3     1  UNL1        0.2898
     22 O         144.8857  143.0406  162.9225 O.3     1  UNL1       -0.4628
     23 H         142.8225  140.4458  165.1332 H       1  UNL1        0.1565
     24 C         137.7265  139.9994  160.1886 C.3     1  UNL1        0.0320
     25 C         138.2853  138.6442  160.5065 C.3     1  UNL1        0.0327
     26 C         139.6739  137.7636  164.6954 C.ar    1  UNL1        0.2249
     27 C         141.1375  137.6044  164.9825 C.ar    1  UNL1        0.0593
     28 C         142.1382  137.7387  163.8733 C.ar    1  UNL1        0.0254
     29 C         141.6754  138.0322  162.4770 C.ar    1  UNL1        0.0990
     30 N         142.6762  138.1665  161.3677 N.ar    1  UNL1       -0.2400
     31 C         142.2134  138.4601  159.9715 C.ar    1  UNL1        0.1281
     32 C         140.7497  138.6193  159.6844 C.ar    1  UNL1        0.1566
     33 F         140.2869  138.9128  158.2881 F       1  UNL1       -0.2028
     34 C         139.7489  138.4850  160.7936 C.ar    1  UNL1        0.0261
     35 C         140.2118  138.1915  162.1899 C.ar    1  UNL1        0.1002
     36 N         139.2110  138.0571  163.2991 N.ar    1  UNL1       -0.2104
     37 O         138.6730  137.6293  165.8046 O.3     1  UNL1       -0.4602
     38 C         138.1352  138.8548  166.4820 C.3     1  UNL1        0.2075
     39 C         140.1850  140.1774  168.0462 C.3     1  UNL1        0.1028
     40 C         139.0311  140.0010  168.9882 C.3     1  UNL1        0.0155
     41 C         138.9245  139.5163  167.5727 C.3     1  UNL1        0.0549
     42 C         141.5789  140.6609  167.7757 C.2     1  UNL1        0.3167
     43 O         142.5825  139.7415  167.1454 O.2     1  UNL1       -0.2501
     44 C         143.2854  142.3282  168.8043 C.3     1  UNL1        0.2556
     45 O         141.9691  142.0639  168.1353 O.3     1  UNL1       -0.4444
@<TRIPOS>BOND
     1    44    45    1
     2    45    42    1
     3    42    43    2
     4    39    42    1
     5    39    40    1
     6    40    41    1
     7    41    38    1
     8    38    37    1
     9    37    26    1
    10    26    27   ar
    11    27    28   ar
    12    28    29   ar
    13    29    30   ar
    14    30    31   ar
    15    31    32   ar
    16    32    33    1
    17    32    34   ar
    18    34    25    1
    19    25    24    1
    20    24     1    1
    21     1     2    1
    22     2     3    1
    23     3     4    1
    24     4     9    1
    25     9    11    1
    26    11    12    1
    27    12    13   ar
    28    13    14   ar
    29    14    15   ar
    30    15    16   ar
    31    16    17   ar
    32    16    18    1
    33    18    19   am
    34    19    20    2
    35    19    21    1
    36    21    22    1
    37     4     5    1
    38     5     6    1
    39     4     7    1
    40     7     8    1
    41    34    35   ar
    42    35    36   ar
    43    41    39    1
    44    36    26   ar
    45    35    29   ar
    46     6     1    1
    47     8     1    1
    48    17    12   ar
    49    22    15    1
    50     9    10    1
    51    18    23    1
@<TRIPOS>MOLECULE
*****
 45 51 0 0 0
SMALL
GASTEIGER

@<TRIPOS>ATOM
      1 C         138.4103  139.5074  163.3826 C.3     1  UNL1        0.0932
      2 C         138.9066  139.9677  164.7212 C.3     1  UNL1        0.0286
      3 C         138.6952  141.3892  165.1513 C.3     1  UNL1        0.0193
      4 C         137.9873  142.3502  164.2428 C.3     1  UNL1        0.0700
      5 C         137.4909  141.8899  162.9042 C.3     1  UNL1        0.0193
      6 C         137.7024  140.4685  162.4742 C.3     1  UNL1        0.0286
      7 C         138.0798  141.5812  163.9635 C.3     1  UNL1        0.1562
      8 O         138.2710  140.2959  163.5746 O.3     1  UNL1       -0.3572
      9 N         137.7758  143.7716  164.6729 N.3     1  UNL1       -0.2926
     10 H         137.5949  143.7517  165.6765 H       1  UNL1        0.1236
     11 C         138.8523  144.7915  164.4470 C.3     1  UNL1        0.1152
     12 C         139.7609  144.6725  163.2594 C.ar    1  UNL1        0.0765
     13 C         141.0835  143.9778  163.3937 C.ar    1  UNL1        0.0193
     14 C         141.9921  143.8589  162.2062 C.ar    1  UNL1        0.0411
     15 C         141.5782  144.4347  160.8844 C.ar    1  UNL1        0.1708
     16 C         140.2556  145.1295  160.7502 C.ar    1  UNL1        0.1682
     17 N         139.3470  145.2484  161.9377 N.ar    1  UNL1       -0.2304
     18 N         139.8416  145.7053  159.4284 N.am    1  UNL1       -0.2639
     19 C         140.7502  145.5864  158.2409 C.2     1  UNL1        0.2718
     20 O         140.3362  146.1622  156.9191 O.2     1  UNL1       -0.2707
     21 C         142.0729  144.8916  158.3751 C.3     1  UNL1        0.2898
     22 O         142.4869  144.3158  159.6969 O.3     1  UNL1       -0.4628
     23 H         138.9735  146.1612  159.3403 H       1  UNL1        0.1565
     24 C         138.6217  138.0860  162.9525 C.3     1  UNL1        0.0320
     25 C         139.9753  137.6365  162.4879 C.3     1  UNL1        0.0327
     26 C         143.7860  139.0704  164.4041 C.ar    1  UNL1        0.2249
     27 C         144.6819  140.0238  163.6704 C.ar    1  UNL1        0.0593
     28 C         144.3075  140.4992  162.2979 C.ar    1  UNL1        0.0254
     29 C         143.0373  140.0213  161.6592 C.ar    1  UNL1        0.0990
     30 N         142.6629  140.4967  160.2866 N.ar    1  UNL1       -0.2400
     31 C         141.3927  140.0188  159.6478 C.ar    1  UNL1        0.1281
     32 C         140.4968  139.0653  160.3817 C.ar    1  UNL1        0.1566
     33 F         139.2265  138.5874  159.7429 F       1  UNL1       -0.2028
     34 C         140.8711  138.5899  161.7541 C.ar    1  UNL1        0.0261
     35 C         142.1414  139.0679  162.3929 C.ar    1  UNL1        0.1002
     36 N         142.5158  138.5925  163.7654 N.ar    1  UNL1       -0.2104
     37 O         144.1604  138.5949  165.7767 O.3     1  UNL1       -0.4602
     38 C         143.1707  138.6914  166.8997 C.3     1  UNL1        0.2075
     39 C         141.2502  140.6904  167.7440 C.3     1  UNL1        0.1028
     40 C         142.1960  141.4196  166.8365 C.3     1  UNL1        0.0155
     41 C         142.3949  139.9581  167.1090 C.3     1  UNL1        0.0549
     42 C         140.0432  140.6922  168.6347 C.2     1  UNL1        0.3167
     43 O         138.9958  139.6297  168.4805 O.2     1  UNL1       -0.2501
     44 C         140.3816  143.1468  169.4160 C.3     1  UNL1        0.2556
     45 O         139.8837  141.7566  169.6795 O.3     1  UNL1       -0.4444
@<TRIPOS>BOND
     1    44    45    1
     2    45    42    1
     3    42    43    2
     4    39    42    1
     5    39    40    1
     6    40    41    1
     7    41    38    1
     8    38    37    1
     9    37    26    1
    10    26    27   ar
    11    27    28   ar
    12    28    29   ar
    13    29    30   ar
    14    30    31   ar
    15    31    32   ar
    16    32    33    1
    17    32    34   ar
    18    34    25    1
    19    25    24    1
    20    24     1    1
    21     1     2    1
    22     2     3    1
    23     3     4    1
    24     4     9    1
    25     9    11    1
    26    11    12    1
    27    12    13   ar
    28    13    14   ar
    29    14    15   ar
    30    15    16   ar
    31    16    17   ar
    32    16    18    1
    33    18    19   am
    34    19    20    2
    35    19    21    1
    36    21    22    1
    37     4     5    1
    38     5     6    1
    39     4     7    1
    40     7     8    1
    41    34    35   ar
    42    35    36   ar
    43    41    39    1
    44    36    26   ar
    45    35    29   ar
    46     6     1    1
    47     8     1    1
    48    17    12   ar
    49    22    15    1
    50     9    10    1
    51    18    23    1
