@<TRIPOS>MOLECULE
*****
 33 37 0 0 0
SMALL
GASTEIGER

@<TRIPOS>ATOM
      1 C         142.7811  141.0419  166.4352 C.2     1  UNL1        0.3072
      2 C         142.9855  141.4851  167.8535 C.3     1  UNL1        0.1631
      3 C         141.9277  141.2173  168.8828 C.2     1  UNL1        0.0844
      4 N         142.1321  141.6605  170.3012 N.2     1  UNL1       -0.2296
      5 C         141.0743  141.3927  171.3304 C.2     1  UNL1        0.1880
      6 N         139.8121  140.6817  170.9413 N.am    1  UNL1       -0.1535
      7 C         139.6077  140.2385  169.5229 C.2     1  UNL1        0.2788
      8 O         138.3456  139.5275  169.1338 O.2     1  UNL1       -0.2677
      9 C         140.6655  140.5063  168.4937 C.2     1  UNL1        0.1519
     10 C         140.4611  140.0631  167.0753 C.2     1  UNL1        0.3343
     11 N         141.5189  140.3310  166.0460 N.2     1  UNL1       -0.0041
     12 N         143.8389  141.3097  165.4058 N.pl3   1  UNL1       -0.2243
     13 H         144.6331  140.7304  165.3540 H       1  UNL1        0.2918
     14 N         145.9270  141.8118  163.3113 N.3     1  UNL1       -0.3190
     15 C         144.7305  142.7113  163.4083 C.3     1  UNL1        0.0939
     16 C         144.5782  143.8618  162.4579 C.3     1  UNL1        0.0196
     17 C         143.3817  144.7613  162.5549 C.3     1  UNL1        0.0016
     18 C         142.3376  144.5102  163.6023 C.3     1  UNL1        0.0042
     19 C         142.4900  143.3597  164.5526 C.3     1  UNL1        0.0478
     20 C         143.6865  142.4603  164.4556 C.3     1  UNL1        0.1704
     21 H         146.5282  142.1267  162.5499 H       1  UNL1        0.1189
     22 H         145.6201  140.8562  163.1292 H       1  UNL1        0.1189
     23 N         139.1990  139.3522  166.6861 N.pl3   1  UNL1       -0.2002
     24 H         138.5767  139.0379  167.3813 H       1  UNL1        0.2983
     25 C         138.8849  139.1200  165.2379 C.2     1  UNL1        0.1391
     26 C         139.1010  137.7651  164.6314 C.2     1  UNL1        0.0378
     27 C         138.7869  137.5329  163.1832 C.2     1  UNL1        0.0030
     28 C         138.2568  138.6556  162.3414 C.2     1  UNL1       -0.0018
     29 C         138.0407  140.0104  162.9478 C.2     1  UNL1        0.0089
     30 C         137.5340  141.2990  162.3710 C.2     1  UNL1        0.0182
     31 C         137.5348  142.3276  163.4628 C.2     1  UNL1        0.0937
     32 N         138.0421  141.6747  164.7143 N.2     1  UNL1       -0.2583
     33 C         138.3548  140.2426  164.3961 C.3     1  UNL1        0.1844
@<TRIPOS>BOND
     1    15    14    1
     2    15    16    1
     3    16    17    1
     4    17    18    1
     5    18    19    1
     6    19    20    1
     7    20    12    1
     8    12     1    1
     9     1     2    1
    10     2     3    1
    11     3     4    2
    12     4     5    1
    13     5     6    2
    14     6     7    1
    15     7     8    2
    16     7     9    1
    17     9    10    2
    18    10    23    1
    19    23    25    1
    20    25    26    2
    21    26    27    1
    22    27    28    2
    23    28    29    1
    24    29    30    2
    25    30    31    1
    26    31    32    2
    27    32    33    1
    28    10    11    1
    29    20    15    1
    30    11     1    2
    31     9     3    1
    32    33    25    1
    33    33    29    1
    34    14    21    1
    35    14    22    1
    36    12    13    1
    37    23    24    1
@<TRIPOS>MOLECULE
*****
 33 37 0 0 0
SMALL
GASTEIGER

@<TRIPOS>ATOM
      1 C         139.0660  140.2074  166.4281 C.2     1  UNL1        0.3072
      2 C         138.9167  139.8380  167.8742 C.3     1  UNL1        0.1631
      3 C         139.9685  140.2426  168.8641 C.2     1  UNL1        0.0844
      4 N         139.8192  139.8732  170.3102 N.2     1  UNL1       -0.2296
      5 C         140.8711  140.2778  171.3000 C.2     1  UNL1        0.1880
      6 N         142.0723  141.0518  170.8438 N.am    1  UNL1       -0.1535
      7 C         142.2216  141.4212  169.3977 C.2     1  UNL1        0.2788
      8 O         143.4227  142.1951  168.9415 O.2     1  UNL1       -0.2677
      9 C         141.1697  141.0166  168.4079 C.2     1  UNL1        0.1519
     10 C         141.3190  141.3860  166.9617 C.2     1  UNL1        0.3343
     11 N         140.2671  140.9814  165.9718 N.2     1  UNL1       -0.0041
     12 N         138.0141  139.8028  165.4381 N.pl3   1  UNL1       -0.2243
     13 H         137.0618  139.8565  165.6821 H       1  UNL1        0.2918
     14 N         136.9093  141.1331  162.9868 N.3     1  UNL1       -0.3190
     15 C         137.8607  139.9815  162.8508 C.3     1  UNL1        0.0939
     16 C         138.2597  139.4950  161.4891 C.3     1  UNL1        0.0196
     17 C         139.2111  138.3434  161.3532 C.3     1  UNL1        0.0016
     18 C         139.7636  137.6782  162.5789 C.3     1  UNL1        0.0042
     19 C         139.3645  138.1647  163.9406 C.3     1  UNL1        0.0478
     20 C         138.4131  139.3163  164.0765 C.3     1  UNL1        0.1704
     21 H         136.6368  141.4603  162.0599 H       1  UNL1        0.1189
     22 H         137.3640  141.8916  163.4950 H       1  UNL1        0.1189
     23 N         142.5201  142.1599  166.5055 N.pl3   1  UNL1       -0.2002
     24 H         142.7918  142.9754  166.9856 H       1  UNL1        0.2983
     25 C         143.3074  141.6915  165.3177 C.2     1  UNL1        0.1391
     26 C         143.7342  140.2569  165.2192 C.2     1  UNL1        0.0378
     27 C         144.5215  139.7885  164.0315 C.2     1  UNL1        0.0030
     28 C         144.8821  140.7547  162.9423 C.2     1  UNL1       -0.0018
     29 C         144.4553  142.1893  163.0407 C.2     1  UNL1        0.0089
     30 C         144.6623  143.3628  162.1297 C.2     1  UNL1        0.0182
     31 C         144.0029  144.5566  162.7544 C.2     1  UNL1        0.0937
     32 N         143.3884  144.1208  164.0515 N.2     1  UNL1       -0.2583
     33 C         143.6680  142.6578  164.2285 C.3     1  UNL1        0.1844
@<TRIPOS>BOND
     1    15    14    1
     2    15    16    1
     3    16    17    1
     4    17    18    1
     5    18    19    1
     6    19    20    1
     7    20    12    1
     8    12     1    1
     9     1     2    1
    10     2     3    1
    11     3     4    2
    12     4     5    1
    13     5     6    2
    14     6     7    1
    15     7     8    2
    16     7     9    1
    17     9    10    2
    18    10    23    1
    19    23    25    1
    20    25    26    2
    21    26    27    1
    22    27    28    2
    23    28    29    1
    24    29    30    2
    25    30    31    1
    26    31    32    2
    27    32    33    1
    28    10    11    1
    29    20    15    1
    30    11     1    2
    31     9     3    1
    32    33    25    1
    33    33    29    1
    34    14    21    1
    35    14    22    1
    36    12    13    1
    37    23    24    1
@<TRIPOS>MOLECULE
*****
 33 37 0 0 0
SMALL
GASTEIGER

@<TRIPOS>ATOM
      1 C         139.0753  140.3749  166.3024 C.2     1  UNL1        0.3072
      2 C         139.1568  139.8129  167.6907 C.3     1  UNL1        0.1631
      3 C         140.2431  140.2660  168.6207 C.2     1  UNL1        0.0844
      4 N         140.3246  139.7040  170.0090 N.2     1  UNL1       -0.2296
      5 C         141.4109  140.1571  170.9389 C.2     1  UNL1        0.1880
      6 N         142.4156  141.1721  170.4805 N.am    1  UNL1       -0.1535
      7 C         142.3340  141.7342  169.0922 C.2     1  UNL1        0.2788
      8 O         143.3388  142.7492  168.6338 O.2     1  UNL1       -0.2677
      9 C         141.2478  141.2811  168.1623 C.2     1  UNL1        0.1519
     10 C         141.1662  141.8431  166.7739 C.2     1  UNL1        0.3343
     11 N         140.0800  141.3900  165.8440 N.2     1  UNL1       -0.0041
     12 N         137.9890  139.9219  165.3725 N.pl3   1  UNL1       -0.2243
     13 H         137.0476  139.9635  165.6578 H       1  UNL1        0.2918
     14 N         136.8491  141.2439  162.9327 N.3     1  UNL1       -0.3190
     15 C         137.7670  140.0664  162.7880 C.3     1  UNL1        0.0939
     16 C         138.1149  139.5499  161.4233 C.3     1  UNL1        0.0196
     17 C         139.0328  138.3724  161.2787 C.3     1  UNL1        0.0016
     18 C         139.6028  137.7114  162.4986 C.3     1  UNL1        0.0042
     19 C         139.2548  138.2279  163.8632 C.3     1  UNL1        0.0478
     20 C         138.3369  139.4054  164.0079 C.3     1  UNL1        0.1704
     21 H         136.5588  141.5643  162.0088 H       1  UNL1        0.1189
     22 H         137.3369  141.9979  163.4163 H       1  UNL1        0.1189
     23 N         142.1709  142.8582  166.3155 N.pl3   1  UNL1       -0.2002
     24 H         142.1972  143.7487  166.7344 H       1  UNL1        0.2983
     25 C         143.1355  142.5164  165.2188 C.2     1  UNL1        0.1391
     26 C         143.5856  143.5771  164.2583 C.2     1  UNL1        0.0378
     27 C         144.5502  143.2354  163.1616 C.2     1  UNL1        0.0030
     28 C         145.0648  141.8330  163.0255 C.2     1  UNL1       -0.0018
     29 C         144.6149  140.7724  163.9859 C.2     1  UNL1        0.0089
     30 C         144.9484  139.3144  164.0997 C.2     1  UNL1        0.0182
     31 C         144.1899  138.7550  165.2667 C.2     1  UNL1        0.0937
     32 N         143.3876  139.8673  165.8742 N.2     1  UNL1       -0.2583
     33 C         143.6502  141.1141  165.0827 C.3     1  UNL1        0.1844
@<TRIPOS>BOND
     1    15    14    1
     2    15    16    1
     3    16    17    1
     4    17    18    1
     5    18    19    1
     6    19    20    1
     7    20    12    1
     8    12     1    1
     9     1     2    1
    10     2     3    1
    11     3     4    2
    12     4     5    1
    13     5     6    2
    14     6     7    1
    15     7     8    2
    16     7     9    1
    17     9    10    2
    18    10    23    1
    19    23    25    1
    20    25    26    2
    21    26    27    1
    22    27    28    2
    23    28    29    1
    24    29    30    2
    25    30    31    1
    26    31    32    2
    27    32    33    1
    28    10    11    1
    29    20    15    1
    30    11     1    2
    31     9     3    1
    32    33    25    1
    33    33    29    1
    34    14    21    1
    35    14    22    1
    36    12    13    1
    37    23    24    1
@<TRIPOS>MOLECULE
*****
 33 37 0 0 0
SMALL
GASTEIGER

@<TRIPOS>ATOM
      1 C         143.0305  142.1915  166.7079 C.2     1  UNL1        0.3072
      2 C         143.0225  142.3393  168.2005 C.3     1  UNL1        0.1631
      3 C         141.9410  141.6905  169.0127 C.2     1  UNL1        0.0844
      4 N         141.9330  141.8383  170.5053 N.2     1  UNL1       -0.2296
      5 C         140.8515  141.1896  171.3174 C.2     1  UNL1        0.1880
      6 N         139.7780  140.3931  170.6368 N.am    1  UNL1       -0.1535
      7 C         139.7860  140.2454  169.1441 C.2     1  UNL1        0.2788
      8 O         138.7125  139.4489  168.4635 O.2     1  UNL1       -0.2677
      9 C         140.8675  140.8941  168.3321 C.2     1  UNL1        0.1519
     10 C         140.8755  140.7463  166.8393 C.2     1  UNL1        0.3343
     11 N         141.9570  141.3950  166.0273 N.2     1  UNL1       -0.0041
     12 N         144.1121  142.8402  165.8957 N.pl3   1  UNL1       -0.2243
     13 H         144.9638  143.0910  166.3211 H       1  UNL1        0.2918
     14 N         145.9746  141.6573  163.8631 N.3     1  UNL1       -0.3190
     15 C         144.8271  142.5154  163.4193 C.3     1  UNL1        0.0939
     16 C         144.6110  142.7820  161.9590 C.3     1  UNL1        0.0196
     17 C         143.4635  143.6401  161.5151 C.3     1  UNL1        0.0016
     18 C         142.5322  144.2316  162.5315 C.3     1  UNL1        0.0042
     19 C         142.7484  143.9649  163.9917 C.3     1  UNL1        0.0478
     20 C         143.8959  143.1069  164.4355 C.3     1  UNL1        0.1704
     21 H         146.4994  141.3426  163.0471 H       1  UNL1        0.1189
     22 H         145.6174  140.8478  164.3706 H       1  UNL1        0.1189
     23 N         139.8020  139.9498  166.1587 N.pl3   1  UNL1       -0.2002
     24 H         139.6038  139.0334  166.4590 H       1  UNL1        0.2983
     25 C         139.0305  140.5496  165.0207 C.2     1  UNL1        0.1391
     26 C         138.6156  141.9902  165.0726 C.2     1  UNL1        0.0378
     27 C         137.8442  142.5899  163.9346 C.2     1  UNL1        0.0030
     28 C         137.4876  141.7491  162.7447 C.2     1  UNL1       -0.0018
     29 C         137.9025  140.3086  162.6927 C.2     1  UNL1        0.0089
     30 C         137.6961  139.2413  161.6592 C.2     1  UNL1        0.0182
     31 C         138.3400  137.9818  162.1585 C.2     1  UNL1        0.0937
     32 N         138.9444  138.2708  163.5006 N.2     1  UNL1       -0.2583
     33 C         138.6740  139.7088  163.8308 C.3     1  UNL1        0.1844
@<TRIPOS>BOND
     1    15    14    1
     2    15    16    1
     3    16    17    1
     4    17    18    1
     5    18    19    1
     6    19    20    1
     7    20    12    1
     8    12     1    1
     9     1     2    1
    10     2     3    1
    11     3     4    2
    12     4     5    1
    13     5     6    2
    14     6     7    1
    15     7     8    2
    16     7     9    1
    17     9    10    2
    18    10    23    1
    19    23    25    1
    20    25    26    2
    21    26    27    1
    22    27    28    2
    23    28    29    1
    24    29    30    2
    25    30    31    1
    26    31    32    2
    27    32    33    1
    28    10    11    1
    29    20    15    1
    30    11     1    2
    31     9     3    1
    32    33    25    1
    33    33    29    1
    34    14    21    1
    35    14    22    1
    36    12    13    1
    37    23    24    1
@<TRIPOS>MOLECULE
*****
 33 37 0 0 0
SMALL
GASTEIGER

@<TRIPOS>ATOM
      1 C         138.0496  140.5590  160.0627 C.2     1  UNL1        0.3072
      2 C         138.4248  140.1924  158.6574 C.3     1  UNL1        0.1631
      3 C         139.1088  141.1965  157.7776 C.2     1  UNL1        0.0844
      4 N         139.4840  140.8300  156.3723 N.2     1  UNL1       -0.2296
      5 C         140.1680  141.8340  155.4926 C.2     1  UNL1        0.1880
      6 N         140.4768  143.2046  156.0181 N.am    1  UNL1       -0.1535
      7 C         140.1016  143.5711  157.4234 C.2     1  UNL1        0.2788
      8 O         140.4104  144.9417  157.9489 O.2     1  UNL1       -0.2677
      9 C         139.4176  142.5671  158.3031 C.2     1  UNL1        0.1519
     10 C         139.0424  142.9336  159.7085 C.2     1  UNL1        0.3343
     11 N         138.3584  141.9295  160.5882 N.2     1  UNL1       -0.0041
     12 N         137.3656  139.5549  160.9425 N.pl3   1  UNL1       -0.2243
     13 H         136.5467  139.1052  160.6319 H       1  UNL1        0.2918
     14 N         136.8212  141.3782  163.2617 N.3     1  UNL1       -0.3190
     15 C         137.6570  140.1477  163.4551 C.3     1  UNL1        0.0939
     16 C         138.2206  139.8290  164.8082 C.3     1  UNL1        0.0196
     17 C         139.0563  138.5985  165.0016 C.3     1  UNL1        0.0016
     18 C         139.3285  137.6868  163.8419 C.3     1  UNL1        0.0042
     19 C         138.7649  138.0056  162.4889 C.3     1  UNL1        0.0478
     20 C         137.9292  139.2361  162.2955 C.3     1  UNL1        0.1704
     21 H         136.7397  141.8766  164.1479 H       1  UNL1        0.1189
     22 H         135.8926  141.1107  162.9354 H       1  UNL1        0.1189
     23 N         139.3512  144.3042  160.2340 N.pl3   1  UNL1       -0.2002
     24 H         139.0438  145.1003  159.7432 H       1  UNL1        0.2983
     25 C         140.1282  144.4617  161.5073 C.2     1  UNL1        0.1391
     26 C         141.6203  144.6096  161.4620 C.2     1  UNL1        0.0378
     27 C         142.3973  144.7671  162.7353 C.2     1  UNL1        0.0030
     28 C         141.6824  144.7768  164.0539 C.2     1  UNL1       -0.0018
     29 C         140.1905  144.6288  164.0993 C.2     1  UNL1        0.0089
     30 C         139.2188  144.6016  165.2416 C.2     1  UNL1        0.0182
     31 C         137.8411  144.4272  164.6744 C.2     1  UNL1        0.0937
     32 N         137.9614  144.3467  163.1814 N.2     1  UNL1       -0.2583
     33 C         139.4133  144.4713  162.8259 C.3     1  UNL1        0.1844
@<TRIPOS>BOND
     1    15    14    1
     2    15    16    1
     3    16    17    1
     4    17    18    1
     5    18    19    1
     6    19    20    1
     7    20    12    1
     8    12     1    1
     9     1     2    1
    10     2     3    1
    11     3     4    2
    12     4     5    1
    13     5     6    2
    14     6     7    1
    15     7     8    2
    16     7     9    1
    17     9    10    2
    18    10    23    1
    19    23    25    1
    20    25    26    2
    21    26    27    1
    22    27    28    2
    23    28    29    1
    24    29    30    2
    25    30    31    1
    26    31    32    2
    27    32    33    1
    28    10    11    1
    29    20    15    1
    30    11     1    2
    31     9     3    1
    32    33    25    1
    33    33    29    1
    34    14    21    1
    35    14    22    1
    36    12    13    1
    37    23    24    1
@<TRIPOS>MOLECULE
*****
 33 37 0 0 0
SMALL
GASTEIGER

@<TRIPOS>ATOM
      1 C         139.4282  138.5979  165.3947 C.2     1  UNL1        0.3072
      2 C         138.6705  138.9316  166.6455 C.3     1  UNL1        0.1631
      3 C         139.3675  139.6141  167.7851 C.2     1  UNL1        0.0844
      4 N         138.6098  139.9478  169.0359 N.2     1  UNL1       -0.2296
      5 C         139.3067  140.6302  170.1754 C.2     1  UNL1        0.1880
      6 N         140.7614  140.9790  170.0641 N.am    1  UNL1       -0.1535
      7 C         141.5191  140.6453  168.8133 C.2     1  UNL1        0.2788
      8 O         142.9737  140.9940  168.7020 O.2     1  UNL1       -0.2677
      9 C         140.8221  139.9629  167.6738 C.2     1  UNL1        0.1519
     10 C         141.5798  139.6291  166.4230 C.2     1  UNL1        0.3343
     11 N         140.8829  138.9467  165.2835 N.2     1  UNL1       -0.0041
     12 N         138.7313  137.9155  164.2551 N.pl3   1  UNL1       -0.2243
     13 H         138.1326  137.1537  164.4296 H       1  UNL1        0.2918
     14 N         141.1693  137.0535  162.7344 N.3     1  UNL1       -0.3190
     15 C         140.1656  137.9627  162.0895 C.3     1  UNL1        0.0939
     16 C         140.3810  138.4409  160.6841 C.3     1  UNL1        0.0196
     17 C         139.3773  139.3501  160.0392 C.3     1  UNL1        0.0016
     18 C         138.1582  139.7811  160.7997 C.3     1  UNL1        0.0042
     19 C         137.9429  139.3029  162.2049 C.3     1  UNL1        0.0478
     20 C         138.9466  138.3937  162.8499 C.3     1  UNL1        0.1704
     21 H         141.9277  136.8648  162.0789 H       1  UNL1        0.1189
     22 H         140.7170  136.1764  162.9925 H       1  UNL1        0.1189
     23 N         143.0345  139.9779  166.3117 N.pl3   1  UNL1       -0.2002
     24 H         143.6855  139.5774  166.9322 H       1  UNL1        0.2983
     25 C         143.4972  140.9367  165.2551 C.2     1  UNL1        0.1391
     26 C         143.7235  142.3793  165.5985 C.2     1  UNL1        0.0378
     27 C         144.1862  143.3381  164.5419 C.2     1  UNL1        0.0030
     28 C         144.4225  142.8545  163.1418 C.2     1  UNL1       -0.0018
     29 C         144.1962  141.4121  162.7983 C.2     1  UNL1        0.0089
     30 C         144.3446  140.6507  161.5145 C.2     1  UNL1        0.0182
     31 C         143.9737  139.2213  161.7776 C.2     1  UNL1        0.0937
     32 N         143.5960  139.0992  163.2241 N.2     1  UNL1       -0.2583
     33 C         143.7335  140.4531  163.8550 C.3     1  UNL1        0.1844
@<TRIPOS>BOND
     1    15    14    1
     2    15    16    1
     3    16    17    1
     4    17    18    1
     5    18    19    1
     6    19    20    1
     7    20    12    1
     8    12     1    1
     9     1     2    1
    10     2     3    1
    11     3     4    2
    12     4     5    1
    13     5     6    2
    14     6     7    1
    15     7     8    2
    16     7     9    1
    17     9    10    2
    18    10    23    1
    19    23    25    1
    20    25    26    2
    21    26    27    1
    22    27    28    2
    23    28    29    1
    24    29    30    2
    25    30    31    1
    26    31    32    2
    27    32    33    1
    28    10    11    1
    29    20    15    1
    30    11     1    2
    31     9     3    1
    32    33    25    1
    33    33    29    1
    34    14    21    1
    35    14    22    1
    36    12    13    1
    37    23    24    1
@<TRIPOS>MOLECULE
*****
 33 37 0 0 0
SMALL
GASTEIGER

@<TRIPOS>ATOM
      1 C         139.2558  141.9956  160.1401 C.2     1  UNL1        0.3072
      2 C         138.8119  140.8283  159.3093 C.3     1  UNL1        0.1631
      3 C         139.8295  139.8984  158.7178 C.2     1  UNL1        0.0844
      4 N         139.3856  138.7311  157.8870 N.2     1  UNL1       -0.2296
      5 C         140.4032  137.8014  157.2955 C.2     1  UNL1        0.1880
      6 N         141.8648  138.0389  157.5349 N.am    1  UNL1       -0.1535
      7 C         142.3088  139.2062  158.3657 C.2     1  UNL1        0.2788
      8 O         143.7704  139.4437  158.6050 O.2     1  UNL1       -0.2677
      9 C         141.2911  140.1359  158.9571 C.2     1  UNL1        0.1519
     10 C         141.7351  141.3033  159.7880 C.2     1  UNL1        0.3343
     11 N         140.7175  142.2331  160.3795 N.2     1  UNL1       -0.0041
     12 N         138.2382  142.9254  160.7317 N.pl3   1  UNL1       -0.2243
     13 H         137.4930  143.2553  160.1793 H       1  UNL1        0.2918
     14 N         136.8356  141.3710  162.8802 N.3     1  UNL1       -0.3190
     15 C         137.6546  142.5753  163.2390 C.3     1  UNL1        0.0939
     16 C         137.7724  143.0025  164.6721 C.3     1  UNL1        0.0196
     17 C         138.5914  144.2068  165.0309 C.3     1  UNL1        0.0016
     18 C         139.2927  144.9840  163.9565 C.3     1  UNL1        0.0042
     19 C         139.1750  144.5569  162.5235 C.3     1  UNL1        0.0478
     20 C         138.3559  143.3525  162.1647 C.3     1  UNL1        0.1704
     21 H         136.4339  140.9684  163.7270 H       1  UNL1        0.1189
     22 H         137.4301  140.6792  162.4237 H       1  UNL1        0.1189
     23 N         143.1967  141.5408  160.0273 N.pl3   1  UNL1       -0.2002
     24 H         143.8015  141.6951  159.2660 H       1  UNL1        0.2983
     25 C         143.7369  141.5432  161.4267 C.2     1  UNL1        0.1391
     26 C         144.3185  140.2887  162.0083 C.2     1  UNL1        0.0378
     27 C         144.8587  140.2911  163.4076 C.2     1  UNL1        0.0030
     28 C         144.8173  141.5479  164.2254 C.2     1  UNL1       -0.0018
     29 C         144.2357  142.8023  163.6439 C.2     1  UNL1        0.0089
     30 C         144.0605  144.1819  164.2060 C.2     1  UNL1        0.0182
     31 C         143.4121  145.0322  163.1540 C.2     1  UNL1        0.0937
     32 N         143.1865  144.1781  161.9418 N.2     1  UNL1       -0.2583
     33 C         143.6955  142.8000  162.2445 C.3     1  UNL1        0.1844
@<TRIPOS>BOND
     1    15    14    1
     2    15    16    1
     3    16    17    1
     4    17    18    1
     5    18    19    1
     6    19    20    1
     7    20    12    1
     8    12     1    1
     9     1     2    1
    10     2     3    1
    11     3     4    2
    12     4     5    1
    13     5     6    2
    14     6     7    1
    15     7     8    2
    16     7     9    1
    17     9    10    2
    18    10    23    1
    19    23    25    1
    20    25    26    2
    21    26    27    1
    22    27    28    2
    23    28    29    1
    24    29    30    2
    25    30    31    1
    26    31    32    2
    27    32    33    1
    28    10    11    1
    29    20    15    1
    30    11     1    2
    31     9     3    1
    32    33    25    1
    33    33    29    1
    34    14    21    1
    35    14    22    1
    36    12    13    1
    37    23    24    1
@<TRIPOS>MOLECULE
*****
 33 37 0 0 0
SMALL
GASTEIGER

@<TRIPOS>ATOM
      1 C         138.0177  140.6499  160.0213 C.2     1  UNL1        0.3072
      2 C         138.2883  140.3508  158.5766 C.3     1  UNL1        0.1631
      3 C         138.9548  141.3779  157.7101 C.2     1  UNL1        0.0844
      4 N         139.2254  141.0788  156.2654 N.2     1  UNL1       -0.2296
      5 C         139.8919  142.1059  155.3989 C.2     1  UNL1        0.1880
      6 N         140.2878  143.4321  155.9772 N.am    1  UNL1       -0.1535
      7 C         140.0173  143.7312  157.4219 C.2     1  UNL1        0.2788
      8 O         140.4132  145.0574  158.0002 O.2     1  UNL1       -0.2677
      9 C         139.3507  142.7041  158.2884 C.2     1  UNL1        0.1519
     10 C         139.0801  143.0032  159.7332 C.2     1  UNL1        0.3343
     11 N         138.4136  141.9761  160.5996 N.2     1  UNL1       -0.0041
     12 N         137.3511  139.6227  160.8879 N.pl3   1  UNL1       -0.2243
     13 H         136.5318  139.1738  160.5776 H       1  UNL1        0.2918
     14 N         136.8316  141.3996  163.2485 N.3     1  UNL1       -0.3190
     15 C         137.6732  140.1681  163.4075 C.3     1  UNL1        0.0939
     16 C         138.2551  139.8252  164.7469 C.3     1  UNL1        0.0196
     17 C         139.0967  138.5938  164.9059 C.3     1  UNL1        0.0016
     18 C         139.3565  137.7053  163.7254 C.3     1  UNL1        0.0042
     19 C         138.7746  138.0483  162.3862 C.3     1  UNL1        0.0478
     20 C         137.9330  139.2797  162.2272 C.3     1  UNL1        0.1704
     21 H         136.7600  141.8806  164.1451 H       1  UNL1        0.1189
     22 H         135.8996  141.1355  162.9290 H       1  UNL1        0.1189
     23 N         139.4760  144.3294  160.3114 N.pl3   1  UNL1       -0.2002
     24 H         139.5635  145.1156  159.7253 H       1  UNL1        0.2983
     25 C         139.7387  144.4578  161.7826 C.2     1  UNL1        0.1391
     26 C         138.5910  144.5486  162.7443 C.2     1  UNL1        0.0378
     27 C         138.8536  144.6770  164.2155 C.2     1  UNL1        0.0030
     28 C         140.2639  144.7146  164.7251 C.2     1  UNL1       -0.0018
     29 C         141.4115  144.6238  163.7636 C.2     1  UNL1        0.0089
     30 C         142.8972  144.6343  163.9700 C.2     1  UNL1        0.0182
     31 C         143.5528  144.5124  162.6264 C.2     1  UNL1        0.0937
     32 N         142.4723  144.4265  161.5895 N.2     1  UNL1       -0.2583
     33 C         141.1489  144.4954  162.2923 C.3     1  UNL1        0.1844
@<TRIPOS>BOND
     1    15    14    1
     2    15    16    1
     3    16    17    1
     4    17    18    1
     5    18    19    1
     6    19    20    1
     7    20    12    1
     8    12     1    1
     9     1     2    1
    10     2     3    1
    11     3     4    2
    12     4     5    1
    13     5     6    2
    14     6     7    1
    15     7     8    2
    16     7     9    1
    17     9    10    2
    18    10    23    1
    19    23    25    1
    20    25    26    2
    21    26    27    1
    22    27    28    2
    23    28    29    1
    24    29    30    2
    25    30    31    1
    26    31    32    2
    27    32    33    1
    28    10    11    1
    29    20    15    1
    30    11     1    2
    31     9     3    1
    32    33    25    1
    33    33    29    1
    34    14    21    1
    35    14    22    1
    36    12    13    1
    37    23    24    1
@<TRIPOS>MOLECULE
*****
 33 37 0 0 0
SMALL
GASTEIGER

@<TRIPOS>ATOM
      1 C         139.4691  141.6525  160.3990 C.2     1  UNL1        0.3072
      2 C         140.2384  141.7390  159.1143 C.3     1  UNL1        0.1631
      3 C         141.2489  140.6843  158.7727 C.2     1  UNL1        0.0844
      4 N         142.0182  140.7708  157.4879 N.2     1  UNL1       -0.2296
      5 C         143.0287  139.7161  157.1464 C.2     1  UNL1        0.1880
      6 N         143.2699  138.5750  158.0897 N.am    1  UNL1       -0.1535
      7 C         142.5006  138.4886  159.3745 C.2     1  UNL1        0.2788
      8 O         142.7418  137.3475  160.3177 O.2     1  UNL1       -0.2677
      9 C         141.4901  139.5432  159.7160 C.2     1  UNL1        0.1519
     10 C         140.7208  139.4568  161.0008 C.2     1  UNL1        0.3343
     11 N         139.7103  140.5114  161.3423 N.2     1  UNL1       -0.0041
     12 N         138.4586  142.7072  160.7406 N.pl3   1  UNL1       -0.2243
     13 H         137.8333  143.0309  160.0526 H       1  UNL1        0.2918
     14 N         136.8740  141.2980  162.8627 N.3     1  UNL1       -0.3190
     15 C         137.6086  142.5639  163.1914 C.3     1  UNL1        0.0939
     16 C         137.5508  143.1252  164.5813 C.3     1  UNL1        0.0196
     17 C         138.2853  144.3910  164.9101 C.3     1  UNL1        0.0016
     18 C         139.0776  145.0956  163.8490 C.3     1  UNL1        0.0042
     19 C         139.1354  144.5343  162.4592 C.3     1  UNL1        0.0478
     20 C         138.4009  143.2685  162.1304 C.3     1  UNL1        0.1704
     21 H         136.3929  140.9581  163.6953 H       1  UNL1        0.1189
     22 H         137.5379  140.5932  162.5420 H       1  UNL1        0.1189
     23 N         140.9620  138.3157  161.9441 N.pl3   1  UNL1       -0.2002
     24 H         140.8628  137.3880  161.6299 H       1  UNL1        0.2983
     25 C         141.3543  138.5881  163.3660 C.2     1  UNL1        0.1391
     26 C         142.7969  138.5225  163.7717 C.2     1  UNL1        0.0378
     27 C         143.1892  138.7949  165.1936 C.2     1  UNL1        0.0030
     28 C         142.1390  139.1330  166.2098 C.2     1  UNL1       -0.0018
     29 C         140.6964  139.1986  165.8041 C.2     1  UNL1        0.0089
     30 C         139.4488  139.5044  166.5787 C.2     1  UNL1        0.0182
     31 C         138.2854  139.4210  165.6355 C.2     1  UNL1        0.0937
     32 N         138.8140  139.0636  164.2780 N.2     1  UNL1       -0.2583
     33 C         140.3040  138.9262  164.3822 C.3     1  UNL1        0.1844
@<TRIPOS>BOND
     1    15    14    1
     2    15    16    1
     3    16    17    1
     4    17    18    1
     5    18    19    1
     6    19    20    1
     7    20    12    1
     8    12     1    1
     9     1     2    1
    10     2     3    1
    11     3     4    2
    12     4     5    1
    13     5     6    2
    14     6     7    1
    15     7     8    2
    16     7     9    1
    17     9    10    2
    18    10    23    1
    19    23    25    1
    20    25    26    2
    21    26    27    1
    22    27    28    2
    23    28    29    1
    24    29    30    2
    25    30    31    1
    26    31    32    2
    27    32    33    1
    28    10    11    1
    29    20    15    1
    30    11     1    2
    31     9     3    1
    32    33    25    1
    33    33    29    1
    34    14    21    1
    35    14    22    1
    36    12    13    1
    37    23    24    1
