@<TRIPOS>MOLECULE
*****
 30 33 0 0 0
SMALL
GASTEIGER

@<TRIPOS>ATOM
      1 C         140.9118  140.0783  166.9449 C.ar    1  UNL1        0.1431
      2 C         140.1682  140.3628  168.2161 C.ar    1  UNL1        0.0377
      3 C         140.7493  141.3024  169.2307 C.ar    1  UNL1        0.0134
      4 C         142.0740  141.9575  168.9742 C.ar    1  UNL1        0.0688
      5 C         142.8177  141.6730  167.7028 C.ar    1  UNL1        0.0178
      6 C         142.2366  140.7334  166.6882 C.ar    1  UNL1        0.0881
      7 C         142.9802  140.4489  165.4170 C.2     1  UNL1        0.2525
      8 O         144.0062  139.3554  165.3769 O.2     1  UNL1       -0.2698
      9 N         142.6979  141.2580  164.1858 N.am    1  UNL1       -0.2660
     10 C         141.7054  142.3771  164.0747 C.3     1  UNL1        0.1236
     11 C         141.7527  142.9007  162.6698 C.ar    1  UNL1        0.0334
     12 C         141.1685  143.9160  161.7328 C.ar    1  UNL1        0.0936
     13 N         141.8292  143.7479  160.3966 N.ar    1  UNL1       -0.2519
     14 N         142.8217  142.6287  160.5079 N.ar    1  UNL1       -0.1723
     15 C         142.7744  142.1051  161.9127 C.ar    1  UNL1        0.0977
     16 C         143.3586  141.0898  162.8497 C.3     1  UNL1        0.1414
     17 C         141.5469  144.5569  159.1655 C.3     1  UNL1        0.1052
     18 C         140.3438  145.4230  158.9363 C.3     1  UNL1        0.0244
     19 C         140.4715  146.0433  157.5765 C.3     1  UNL1        0.0021
     20 C         141.7535  145.5606  156.9653 C.3     1  UNL1        0.0021
     21 C         142.4181  144.6420  157.9474 C.3     1  UNL1        0.0244
     22 C         142.6551  142.8971  169.9888 C.1     1  UNL1        0.1004
     23 N         143.2362  143.8366  171.0034 N.1     1  UNL1       -0.1908
     24 O         140.3307  139.1387  165.9302 O.3     1  UNL1       -0.4702
     25 C         138.1172  140.1293  164.9979 C.3     1  UNL1        0.0566
     26 C         138.8438  139.0546  165.7509 C.3     1  UNL1        0.2599
     27 C         138.0836  137.8957  166.3246 C.3     1  UNL1        0.4340
     28 F         137.3234  136.7369  166.8984 F       1  UNL1       -0.1664
     29 F         137.3227  138.8347  167.2131 F       1  UNL1       -0.1664
     30 F         138.8445  136.9567  165.4362 F       1  UNL1       -0.1664
@<TRIPOS>BOND
     1    26    25    1
     2    26    24    1
     3    24     1    1
     4     1     2   ar
     5     2     3   ar
     6     3     4   ar
     7     4    22    1
     8    22    23    3
     9     4     5   ar
    10     5     6   ar
    11     6     7    1
    12     7     8    2
    13     7     9   am
    14     9    10    1
    15    10    11    1
    16    11    12   ar
    17    12    13   ar
    18    13    17    1
    19    17    18    1
    20    18    19    1
    21    19    20    1
    22    20    21    1
    23    13    14   ar
    24    14    15   ar
    25    15    16    1
    26    26    27    1
    27    27    28    1
    28    27    29    1
    29    27    30    1
    30     6     1   ar
    31    16     9    1
    32    15    11   ar
    33    21    17    1
@<TRIPOS>MOLECULE
*****
 30 33 0 0 0
SMALL
GASTEIGER

@<TRIPOS>ATOM
      1 C         139.8606  141.6273  164.6675 C.ar    1  UNL1        0.1431
      2 C         140.1628  141.4001  166.1191 C.ar    1  UNL1        0.0377
      3 C         139.4108  140.3537  166.8869 C.ar    1  UNL1        0.0134
      4 C         138.3565  139.5345  166.2032 C.ar    1  UNL1        0.0688
      5 C         138.0543  139.7617  164.7516 C.ar    1  UNL1        0.0178
      6 C         138.8063  140.8081  163.9837 C.ar    1  UNL1        0.0881
      7 C         138.5041  141.0352  162.5322 C.2     1  UNL1        0.2525
      8 O         137.3675  141.9294  162.1338 O.2     1  UNL1       -0.2698
      9 N         139.3383  140.3682  161.4791 N.am    1  UNL1       -0.2660
     10 C         140.5007  139.4523  161.7242 C.3     1  UNL1        0.1236
     11 C         141.0374  139.0180  160.3925 C.ar    1  UNL1        0.0334
     12 C         142.0875  138.1836  159.7210 C.ar    1  UNL1        0.0936
     13 N         141.9059  138.3153  158.2378 N.ar    1  UNL1       -0.2519
     14 N         140.7434  139.2311  157.9927 N.ar    1  UNL1       -0.1723
     15 C         140.2067  139.6654  159.3244 C.ar    1  UNL1        0.0977
     16 C         139.1566  140.4999  159.9959 C.3     1  UNL1        0.1414
     17 C         142.7401  137.6483  157.1847 C.3     1  UNL1        0.1052
     18 C         142.9569  136.1714  157.0360 C.3     1  UNL1        0.0244
     19 C         143.8548  135.9514  155.8548 C.3     1  UNL1        0.0021
     20 C         144.1930  137.2922  155.2734 C.3     1  UNL1        0.0021
     21 C         143.5040  138.3409  156.0953 C.3     1  UNL1        0.0244
     22 C         137.6045  138.4882  166.9711 C.1     1  UNL1        0.1004
     23 N         136.8524  137.4419  167.7390 N.1     1  UNL1       -0.1908
     24 O         140.6126  142.6736  163.8996 O.3     1  UNL1       -0.4702
     25 C         141.2538  145.1794  163.6546 C.3     1  UNL1        0.0566
     26 C         140.2776  144.1241  164.0830 C.3     1  UNL1        0.2599
     27 C         138.9663  144.5194  164.6947 C.3     1  UNL1        0.4340
     28 F         137.6550  144.9147  165.3065 F       1  UNL1       -0.1664
     29 F         139.5914  144.4837  166.0578 F       1  UNL1       -0.1664
     30 F         138.3411  144.5552  163.3316 F       1  UNL1       -0.1664
@<TRIPOS>BOND
     1    26    25    1
     2    26    24    1
     3    24     1    1
     4     1     2   ar
     5     2     3   ar
     6     3     4   ar
     7     4    22    1
     8    22    23    3
     9     4     5   ar
    10     5     6   ar
    11     6     7    1
    12     7     8    2
    13     7     9   am
    14     9    10    1
    15    10    11    1
    16    11    12   ar
    17    12    13   ar
    18    13    17    1
    19    17    18    1
    20    18    19    1
    21    19    20    1
    22    20    21    1
    23    13    14   ar
    24    14    15   ar
    25    15    16    1
    26    26    27    1
    27    27    28    1
    28    27    29    1
    29    27    30    1
    30     6     1   ar
    31    16     9    1
    32    15    11   ar
    33    21    17    1
@<TRIPOS>MOLECULE
*****
 30 33 0 0 0
SMALL
GASTEIGER

@<TRIPOS>ATOM
      1 C         140.7994  140.0097  167.0743 C.ar    1  UNL1        0.1431
      2 C         139.9084  140.7917  167.9934 C.ar    1  UNL1        0.0377
      3 C         140.5056  141.7467  168.9839 C.ar    1  UNL1        0.0134
      4 C         141.9939  141.9199  169.0554 C.ar    1  UNL1        0.0688
      5 C         142.8849  141.1379  168.1362 C.ar    1  UNL1        0.0178
      6 C         142.2877  140.1829  167.1457 C.ar    1  UNL1        0.0881
      7 C         143.1787  139.4010  166.2266 C.2     1  UNL1        0.2525
      8 O         143.9438  138.2210  166.7483 O.2     1  UNL1       -0.2698
      9 N         143.3046  139.7991  164.7859 N.am    1  UNL1       -0.2660
     10 C         142.6051  140.9495  164.1247 C.3     1  UNL1        0.1236
     11 C         143.0204  140.9781  162.6837 C.ar    1  UNL1        0.0334
     12 C         142.8447  141.7068  161.3844 C.ar    1  UNL1        0.0936
     13 N         143.6923  141.0244  160.3519 N.ar    1  UNL1       -0.2519
     14 N         144.3918  139.8740  161.0131 N.ar    1  UNL1       -0.1723
     15 C         143.9766  139.8454  162.4542 C.ar    1  UNL1        0.0977
     16 C         144.1522  139.1167  163.7535 C.3     1  UNL1        0.1414
     17 C         143.8182  141.4225  158.9113 C.3     1  UNL1        0.1052
     18 C         143.5892  142.7958  158.3527 C.3     1  UNL1        0.0244
     19 C         143.8247  142.7393  156.8724 C.3     1  UNL1        0.0021
     20 C         144.1994  141.3312  156.5160 C.3     1  UNL1        0.0021
     21 C         144.1954  140.5174  157.7761 C.3     1  UNL1        0.0244
     22 C         142.5911  142.8750  170.0459 C.1     1  UNL1        0.1004
     23 N         143.1883  143.8300  171.0364 N.1     1  UNL1       -0.1908
     24 O         140.2021  139.0547  166.0838 O.3     1  UNL1       -0.4702
     25 C         138.0077  140.0293  165.0916 C.3     1  UNL1        0.0566
     26 C         138.7138  138.9886  165.9091 C.3     1  UNL1        0.2599
     27 C         137.9317  137.8818  166.5518 C.3     1  UNL1        0.4340
     28 F         137.1496  136.7749  167.1946 F       1  UNL1       -0.1664
     29 F         138.5898  136.8879  165.6412 F       1  UNL1       -0.1664
     30 F         137.2736  138.8756  167.4625 F       1  UNL1       -0.1664
@<TRIPOS>BOND
     1    26    25    1
     2    26    24    1
     3    24     1    1
     4     1     2   ar
     5     2     3   ar
     6     3     4   ar
     7     4    22    1
     8    22    23    3
     9     4     5   ar
    10     5     6   ar
    11     6     7    1
    12     7     8    2
    13     7     9   am
    14     9    10    1
    15    10    11    1
    16    11    12   ar
    17    12    13   ar
    18    13    17    1
    19    17    18    1
    20    18    19    1
    21    19    20    1
    22    20    21    1
    23    13    14   ar
    24    14    15   ar
    25    15    16    1
    26    26    27    1
    27    27    28    1
    28    27    29    1
    29    27    30    1
    30     6     1   ar
    31    16     9    1
    32    15    11   ar
    33    21    17    1
@<TRIPOS>MOLECULE
*****
 30 33 0 0 0
SMALL
GASTEIGER

@<TRIPOS>ATOM
      1 C         138.7569  141.0654  163.8881 C.ar    1  UNL1        0.1431
      2 C         137.6589  142.0852  163.9532 C.ar    1  UNL1        0.0377
      3 C         137.8968  143.4770  163.4471 C.ar    1  UNL1        0.0134
      4 C         139.2329  143.8491  162.8758 C.ar    1  UNL1        0.0688
      5 C         140.3310  142.8292  162.8106 C.ar    1  UNL1        0.0178
      6 C         140.0931  141.4374  163.3168 C.ar    1  UNL1        0.0881
      7 C         141.1912  140.4177  163.2516 C.2     1  UNL1        0.2525
      8 O         142.0134  140.1220  164.4708 O.2     1  UNL1       -0.2698
      9 N         141.4670  139.6936  161.9672 N.am    1  UNL1       -0.2660
     10 C         140.7322  139.8824  160.6733 C.3     1  UNL1        0.1236
     11 C         141.3372  138.9590  159.6577 C.ar    1  UNL1        0.0334
     12 C         141.2569  138.5051  158.2303 C.ar    1  UNL1        0.0936
     13 N         142.3161  137.4650  158.0144 N.ar    1  UNL1       -0.2519
     14 N         143.0509  137.2763  159.3084 N.ar    1  UNL1       -0.1723
     15 C         142.4459  138.1996  160.3240 C.ar    1  UNL1        0.0977
     16 C         142.5262  138.6536  161.7514 C.3     1  UNL1        0.1414
     17 C         142.5919  136.7410  156.7301 C.3     1  UNL1        0.1052
     18 C         143.3820  135.4742  156.5842 C.3     1  UNL1        0.0244
     19 C         143.4045  135.1068  155.1301 C.3     1  UNL1        0.0021
     20 C         142.6284  136.1465  154.3772 C.3     1  UNL1        0.0021
     21 C         142.1262  137.1564  155.3660 C.3     1  UNL1        0.0244
     22 C         139.4709  145.2409  162.3696 C.1     1  UNL1        0.1004
     23 N         139.7089  146.6327  161.8635 N.1     1  UNL1       -0.1908
     24 O         138.5189  139.6736  164.3942 O.3     1  UNL1       -0.4702
     25 C         139.3372  140.3392  166.7686 C.3     1  UNL1        0.0566
     26 C         138.6232  139.3811  165.8618 C.3     1  UNL1        0.2599
     27 C         138.0135  138.1306  166.4224 C.3     1  UNL1        0.4340
     28 F         137.4038  136.8800  166.9829 F       1  UNL1       -0.1664
     29 F         138.5299  137.3525  165.2484 F       1  UNL1       -0.1664
     30 F         137.4971  138.9085  167.5963 F       1  UNL1       -0.1664
@<TRIPOS>BOND
     1    26    25    1
     2    26    24    1
     3    24     1    1
     4     1     2   ar
     5     2     3   ar
     6     3     4   ar
     7     4    22    1
     8    22    23    3
     9     4     5   ar
    10     5     6   ar
    11     6     7    1
    12     7     8    2
    13     7     9   am
    14     9    10    1
    15    10    11    1
    16    11    12   ar
    17    12    13   ar
    18    13    17    1
    19    17    18    1
    20    18    19    1
    21    19    20    1
    22    20    21    1
    23    13    14   ar
    24    14    15   ar
    25    15    16    1
    26    26    27    1
    27    27    28    1
    28    27    29    1
    29    27    30    1
    30     6     1   ar
    31    16     9    1
    32    15    11   ar
    33    21    17    1
@<TRIPOS>MOLECULE
*****
 30 33 0 0 0
SMALL
GASTEIGER

@<TRIPOS>ATOM
      1 C         140.4370  140.7997  165.3623 C.ar    1  UNL1        0.1431
      2 C         139.9974  141.8919  166.2917 C.ar    1  UNL1        0.0377
      3 C         140.9236  142.3812  167.3654 C.ar    1  UNL1        0.0134
      4 C         142.2895  141.7782  167.5097 C.ar    1  UNL1        0.0688
      5 C         142.7291  140.6859  166.5803 C.ar    1  UNL1        0.0178
      6 C         141.8029  140.1967  165.5066 C.ar    1  UNL1        0.0881
      7 C         142.2426  139.1045  164.5773 C.2     1  UNL1        0.2525
      8 O         142.2240  137.6765  165.0362 O.2     1  UNL1       -0.2698
      9 N         142.7009  139.4402  163.1890 N.am    1  UNL1       -0.2660
     10 C         142.7735  140.8147  162.5927 C.3     1  UNL1        0.1236
     11 C         143.2845  140.6843  161.1885 C.ar    1  UNL1        0.0334
     12 C         143.6452  141.4531  159.9521 C.ar    1  UNL1        0.0936
     13 N         144.1113  140.4733  158.9163 N.ar    1  UNL1       -0.2519
     14 N         144.0386  139.0988  159.5126 N.ar    1  UNL1       -0.1723
     15 C         143.5277  139.2292  160.9169 C.ar    1  UNL1        0.0977
     16 C         143.1669  138.4603  162.1533 C.3     1  UNL1        0.1414
     17 C         144.5696  140.8090  157.5281 C.3     1  UNL1        0.1052
     18 C         144.2211  140.0561  156.2783 C.3     1  UNL1        0.0244
     19 C         144.8929  140.7383  155.1237 C.3     1  UNL1        0.0021
     20 C         145.6567  141.9128  155.6597 C.3     1  UNL1        0.0021
     21 C         145.4568  141.9565  157.1457 C.3     1  UNL1        0.0244
     22 C         143.2157  142.2675  168.5834 C.1     1  UNL1        0.1004
     23 N         144.1418  142.7567  169.6571 N.1     1  UNL1       -0.1908
     24 O         139.5109  140.3105  164.2886 O.3     1  UNL1       -0.4702
     25 C         138.8531  138.0619  163.1655 C.3     1  UNL1        0.0566
     26 C         138.9134  138.9378  164.3817 C.3     1  UNL1        0.2599
     27 C         138.3761  138.4410  165.6911 C.3     1  UNL1        0.4340
     28 F         137.8389  137.9441  167.0005 F       1  UNL1       -0.1664
     29 F         139.1653  137.1750  165.5346 F       1  UNL1       -0.1664
     30 F         137.5869  139.7069  165.8477 F       1  UNL1       -0.1664
@<TRIPOS>BOND
     1    26    25    1
     2    26    24    1
     3    24     1    1
     4     1     2   ar
     5     2     3   ar
     6     3     4   ar
     7     4    22    1
     8    22    23    3
     9     4     5   ar
    10     5     6   ar
    11     6     7    1
    12     7     8    2
    13     7     9   am
    14     9    10    1
    15    10    11    1
    16    11    12   ar
    17    12    13   ar
    18    13    17    1
    19    17    18    1
    20    18    19    1
    21    19    20    1
    22    20    21    1
    23    13    14   ar
    24    14    15   ar
    25    15    16    1
    26    26    27    1
    27    27    28    1
    28    27    29    1
    29    27    30    1
    30     6     1   ar
    31    16     9    1
    32    15    11   ar
    33    21    17    1
@<TRIPOS>MOLECULE
*****
 30 33 0 0 0
SMALL
GASTEIGER

@<TRIPOS>ATOM
      1 C         140.1714  141.5715  164.3130 C.ar    1  UNL1        0.1431
      2 C         140.6946  141.1028  165.6383 C.ar    1  UNL1        0.0377
      3 C         139.8936  140.1390  166.4625 C.ar    1  UNL1        0.0134
      4 C         138.5693  139.6439  165.9615 C.ar    1  UNL1        0.0688
      5 C         138.0460  140.1127  164.6361 C.ar    1  UNL1        0.0178
      6 C         138.8471  141.0765  163.8118 C.ar    1  UNL1        0.0881
      7 C         138.3238  141.5451  162.4865 C.2     1  UNL1        0.2525
      8 O         137.4932  142.7916  162.4065 O.2     1  UNL1       -0.2698
      9 N         138.6310  140.7674  161.2413 N.am    1  UNL1       -0.2660
     10 C         139.4441  139.5091  161.1658 C.3     1  UNL1        0.1236
     11 C         139.4947  139.0754  159.7307 C.ar    1  UNL1        0.0334
     12 C         140.0285  138.0297  158.7972 C.ar    1  UNL1        0.0936
     13 N         139.5768  138.3736  157.4087 N.ar    1  UNL1       -0.2519
     14 N         138.7637  139.6320  157.4843 N.ar    1  UNL1       -0.1723
     15 C         138.7130  140.0657  158.9193 C.ar    1  UNL1        0.0977
     16 C         138.1792  141.1114  159.8529 C.3     1  UNL1        0.1414
     17 C         139.8840  137.5959  156.1636 C.3     1  UNL1        0.1052
     18 C         140.9655  136.5677  156.0105 C.3     1  UNL1        0.0244
     19 C         140.9136  136.0461  154.6051 C.3     1  UNL1        0.0021
     20 C         139.8002  136.7520  153.8894 C.3     1  UNL1        0.0021
     21 C         139.1639  137.7098  154.8526 C.3     1  UNL1        0.0244
     22 C         137.7682  138.6801  166.7858 C.1     1  UNL1        0.1004
     23 N         136.9672  137.7163  167.6101 N.1     1  UNL1       -0.1908
     24 O         140.9724  142.5353  163.4887 O.3     1  UNL1       -0.4702
     25 C         139.8815  144.7377  164.3308 C.3     1  UNL1        0.0566
     26 C         141.1007  143.9659  163.9212 C.3     1  UNL1        0.2599
     27 C         142.4481  144.6245  163.9439 C.3     1  UNL1        0.4340
     28 F         143.7956  145.2831  163.9667 F       1  UNL1       -0.1664
     29 F         143.0941  143.2943  164.1959 F       1  UNL1       -0.1664
     30 F         141.8023  145.9547  163.6920 F       1  UNL1       -0.1664
@<TRIPOS>BOND
     1    26    25    1
     2    26    24    1
     3    24     1    1
     4     1     2   ar
     5     2     3   ar
     6     3     4   ar
     7     4    22    1
     8    22    23    3
     9     4     5   ar
    10     5     6   ar
    11     6     7    1
    12     7     8    2
    13     7     9   am
    14     9    10    1
    15    10    11    1
    16    11    12   ar
    17    12    13   ar
    18    13    17    1
    19    17    18    1
    20    18    19    1
    21    19    20    1
    22    20    21    1
    23    13    14   ar
    24    14    15   ar
    25    15    16    1
    26    26    27    1
    27    27    28    1
    28    27    29    1
    29    27    30    1
    30     6     1   ar
    31    16     9    1
    32    15    11   ar
    33    21    17    1
@<TRIPOS>MOLECULE
*****
 30 33 0 0 0
SMALL
GASTEIGER

@<TRIPOS>ATOM
      1 C         141.6678  139.6533  166.7459 C.ar    1  UNL1        0.1431
      2 C         142.6392  140.1453  167.7775 C.ar    1  UNL1        0.0377
      3 C         142.2930  141.3310  168.6285 C.ar    1  UNL1        0.0134
      4 C         140.9753  142.0247  168.4480 C.ar    1  UNL1        0.0688
      5 C         140.0039  141.5326  167.4163 C.ar    1  UNL1        0.0178
      6 C         140.3501  140.3469  166.5653 C.ar    1  UNL1        0.0881
      7 C         139.3787  139.8549  165.5337 C.2     1  UNL1        0.2525
      8 O         138.4468  138.7255  165.8593 O.2     1  UNL1       -0.2698
      9 N         139.3391  140.4923  164.1764 N.am    1  UNL1       -0.2660
     10 C         140.2049  141.6242  163.7083 C.3     1  UNL1        0.1236
     11 C         139.8277  141.9411  162.2915 C.ar    1  UNL1        0.0334
     12 C         140.1296  142.8365  161.1266 C.ar    1  UNL1        0.0936
     13 N         139.2173  142.4539  159.9991 N.ar    1  UNL1       -0.2519
     14 N         138.3515  141.3218  160.4672 N.ar    1  UNL1       -0.1723
     15 C         138.7288  141.0050  161.8840 C.ar    1  UNL1        0.0977
     16 C         138.4268  140.1095  163.0489 C.3     1  UNL1        0.1414
     17 C         139.1777  143.0912  158.6419 C.3     1  UNL1        0.1052
     18 C         139.9764  144.2830  158.2038 C.3     1  UNL1        0.0244
     19 C         139.6248  144.5770  156.7755 C.3     1  UNL1        0.0021
     20 C         138.6089  143.5670  156.3308 C.3     1  UNL1        0.0021
     21 C         138.3325  142.6487  157.4843 C.3     1  UNL1        0.0244
     22 C         140.6291  143.2103  169.2990 C.1     1  UNL1        0.1004
     23 N         140.2829  144.3960  170.1501 N.1     1  UNL1       -0.1908
     24 O         142.0141  138.4676  165.8948 O.3     1  UNL1       -0.4702
     25 C         142.0815  138.1567  163.3163 C.3     1  UNL1        0.0566
     26 C         142.7090  138.6652  164.5803 C.3     1  UNL1        0.2599
     27 C         144.0314  139.3714  164.5298 C.3     1  UNL1        0.4340
     28 F         145.3537  140.0776  164.4793 F       1  UNL1       -0.1664
     29 F         143.5173  140.2556  163.4325 F       1  UNL1       -0.1664
     30 F         144.5455  138.4873  165.6271 F       1  UNL1       -0.1664
@<TRIPOS>BOND
     1    26    25    1
     2    26    24    1
     3    24     1    1
     4     1     2   ar
     5     2     3   ar
     6     3     4   ar
     7     4    22    1
     8    22    23    3
     9     4     5   ar
    10     5     6   ar
    11     6     7    1
    12     7     8    2
    13     7     9   am
    14     9    10    1
    15    10    11    1
    16    11    12   ar
    17    12    13   ar
    18    13    17    1
    19    17    18    1
    20    18    19    1
    21    19    20    1
    22    20    21    1
    23    13    14   ar
    24    14    15   ar
    25    15    16    1
    26    26    27    1
    27    27    28    1
    28    27    29    1
    29    27    30    1
    30     6     1   ar
    31    16     9    1
    32    15    11   ar
    33    21    17    1
@<TRIPOS>MOLECULE
*****
 30 33 0 0 0
SMALL
GASTEIGER

@<TRIPOS>ATOM
      1 C         141.0582  140.3728  166.0495 C.ar    1  UNL1        0.1431
      2 C         140.0879  139.7302  166.9958 C.ar    1  UNL1        0.0377
      3 C         139.6867  140.4395  168.2551 C.ar    1  UNL1        0.0134
      4 C         140.2559  141.7916  168.5681 C.ar    1  UNL1        0.0688
      5 C         141.2262  142.4342  167.6218 C.ar    1  UNL1        0.0178
      6 C         141.6274  141.7249  166.3625 C.ar    1  UNL1        0.0881
      7 C         142.5977  142.3676  165.4162 C.2     1  UNL1        0.2525
      8 O         144.0277  142.5615  165.8254 O.2     1  UNL1       -0.2698
      9 N         142.1379  142.8164  164.0607 N.am    1  UNL1       -0.2660
     10 C         140.7466  142.6895  163.5149 C.3     1  UNL1        0.1236
     11 C         140.7376  143.2656  162.1300 C.ar    1  UNL1        0.0334
     12 C         139.8722  143.5432  160.9367 C.ar    1  UNL1        0.0936
     13 N         140.7231  144.1978  159.8891 N.ar    1  UNL1       -0.2519
     14 N         142.1146  144.3247  160.4350 N.ar    1  UNL1       -0.1723
     15 C         142.1235  143.7486  161.8199 C.ar    1  UNL1        0.0977
     16 C         142.9889  143.4710  163.0132 C.3     1  UNL1        0.1414
     17 C         140.2634  144.6466  158.5337 C.3     1  UNL1        0.1052
     18 C         139.5845  143.7915  157.5051 C.3     1  UNL1        0.0244
     19 C         139.3035  144.6458  156.3046 C.3     1  UNL1        0.0021
     20 C         139.8086  146.0288  156.5912 C.3     1  UNL1        0.0021
     21 C         140.4019  146.0293  157.9689 C.3     1  UNL1        0.0244
     22 C         139.8547  142.5010  169.8274 C.1     1  UNL1        0.1004
     23 N         139.4536  143.2103  171.0867 N.1     1  UNL1       -0.1908
     24 O         141.4593  139.6634  164.7902 O.3     1  UNL1       -0.4702
     25 C         141.1798  137.0974  164.4947 C.3     1  UNL1        0.0566
     26 C         140.6603  138.4913  164.3025 C.3     1  UNL1        0.2599
     27 C         139.3418  138.7133  163.6227 C.3     1  UNL1        0.4340
     28 F         138.0232  138.9353  162.9429 F       1  UNL1       -0.1664
     29 F         138.6771  137.8066  164.6158 F       1  UNL1       -0.1664
     30 F         140.0064  139.6201  162.6296 F       1  UNL1       -0.1664
@<TRIPOS>BOND
     1    26    25    1
     2    26    24    1
     3    24     1    1
     4     1     2   ar
     5     2     3   ar
     6     3     4   ar
     7     4    22    1
     8    22    23    3
     9     4     5   ar
    10     5     6   ar
    11     6     7    1
    12     7     8    2
    13     7     9   am
    14     9    10    1
    15    10    11    1
    16    11    12   ar
    17    12    13   ar
    18    13    17    1
    19    17    18    1
    20    18    19    1
    21    19    20    1
    22    20    21    1
    23    13    14   ar
    24    14    15   ar
    25    15    16    1
    26    26    27    1
    27    27    28    1
    28    27    29    1
    29    27    30    1
    30     6     1   ar
    31    16     9    1
    32    15    11   ar
    33    21    17    1
@<TRIPOS>MOLECULE
*****
 30 33 0 0 0
SMALL
GASTEIGER

@<TRIPOS>ATOM
      1 C         140.6647  140.9659  165.7340 C.ar    1  UNL1        0.1431
      2 C         141.5377  139.9627  166.4278 C.ar    1  UNL1        0.0377
      3 C         142.5110  140.4135  167.4763 C.ar    1  UNL1        0.0134
      4 C         142.6113  141.8675  167.8312 C.ar    1  UNL1        0.0688
      5 C         141.7382  142.8707  167.1373 C.ar    1  UNL1        0.0178
      6 C         140.7649  142.4200  166.0887 C.ar    1  UNL1        0.0881
      7 C         139.8920  143.4232  165.3949 C.2     1  UNL1        0.2525
      8 O         138.7651  144.0777  166.1378 O.2     1  UNL1       -0.2698
      9 N         140.1458  143.7720  163.9583 N.am    1  UNL1       -0.2660
     10 C         141.2291  143.2026  163.0909 C.3     1  UNL1        0.1236
     11 C         141.1136  143.8301  161.7334 C.ar    1  UNL1        0.0334
     12 C         141.7118  143.8660  160.3583 C.ar    1  UNL1        0.0936
     13 N         140.9269  144.8453  159.5367 N.ar    1  UNL1       -0.2519
     14 N         139.8436  145.4147  160.4042 N.ar    1  UNL1       -0.1723
     15 C         139.9590  144.7872  161.7617 C.ar    1  UNL1        0.0977
     16 C         139.3608  144.7513  163.1368 C.3     1  UNL1        0.1414
     17 C         141.1807  145.1941  158.1001 C.3     1  UNL1        0.1052
     18 C         140.3577  146.1254  157.2602 C.3     1  UNL1        0.0244
     19 C         140.9704  146.1797  155.8922 C.3     1  UNL1        0.0021
     20 C         142.1721  145.2819  155.8865 C.3     1  UNL1        0.0021
     21 C         142.3020  144.6728  157.2511 C.3     1  UNL1        0.0244
     22 C         143.5846  142.3182  168.8797 C.1     1  UNL1        0.1004
     23 N         144.5579  142.7689  169.9283 N.1     1  UNL1       -0.1908
     24 O         139.6914  140.5152  164.6854 O.3     1  UNL1       -0.4702
     25 C         138.0454  139.2195  166.2222 C.3     1  UNL1        0.0566
     26 C         138.8140  139.3252  164.9384 C.3     1  UNL1        0.2599
     27 C         138.7052  138.2410  163.9077 C.3     1  UNL1        0.4340
     28 F         138.5964  137.1566  162.8769 F       1  UNL1       -0.1664
     29 F         139.2137  137.2421  164.9046 F       1  UNL1       -0.1664
     30 F         138.1966  139.2397  162.9107 F       1  UNL1       -0.1664
@<TRIPOS>BOND
     1    26    25    1
     2    26    24    1
     3    24     1    1
     4     1     2   ar
     5     2     3   ar
     6     3     4   ar
     7     4    22    1
     8    22    23    3
     9     4     5   ar
    10     5     6   ar
    11     6     7    1
    12     7     8    2
    13     7     9   am
    14     9    10    1
    15    10    11    1
    16    11    12   ar
    17    12    13   ar
    18    13    17    1
    19    17    18    1
    20    18    19    1
    21    19    20    1
    22    20    21    1
    23    13    14   ar
    24    14    15   ar
    25    15    16    1
    26    26    27    1
    27    27    28    1
    28    27    29    1
    29    27    30    1
    30     6     1   ar
    31    16     9    1
    32    15    11   ar
    33    21    17    1
