@<TRIPOS>MOLECULE
*****
 53 59 0 0 0
SMALL
GASTEIGER

@<TRIPOS>ATOM
      1 C         141.6266  141.8931  164.9051 C.3     1  UNL1        0.0236
      2 C         141.6534  140.9994  163.7008 C.3     1  UNL1        0.0257
      3 C         141.7165  141.5954  162.3257 C.3     1  UNL1        0.0940
      4 N         141.7528  143.0852  162.1550 N.am    1  UNL1       -0.2760
      5 C         141.8159  143.6813  160.7799 C.2     1  UNL1        0.2499
      6 O         141.8523  145.1711  160.6092 O.2     1  UNL1       -0.2699
      7 C         141.7260  143.9790  163.3593 C.3     1  UNL1        0.0940
      8 C         141.6629  143.3830  164.7343 C.3     1  UNL1        0.0257
      9 C         141.8428  142.7874  159.5756 C.ar    1  UNL1        0.0656
     10 C         143.1548  142.3683  158.9817 C.ar    1  UNL1        0.0276
     11 C         143.1815  141.4744  157.7774 C.ar    1  UNL1        0.1494
     12 C         141.8962  140.9997  157.1670 C.ar    1  UNL1        0.1594
     13 F         141.9230  140.1059  155.9627 F       1  UNL1       -0.2027
     14 C         140.5841  141.4189  157.7610 C.ar    1  UNL1        0.0426
     15 C         140.5574  142.3127  158.9653 C.ar    1  UNL1        0.0643
     16 CL        139.2453  142.7318  159.5592 Cl      1  UNL1       -0.0820
     17 S         144.4936  141.0553  157.1835 S.O2    1  UNL1        0.0626
     18 O         144.4306  139.7688  157.9522 O.2     1  UNL1       -0.1529
     19 O         144.5566  142.3418  156.4147 O.2     1  UNL1       -0.1529
     20 N         145.8058  140.6361  156.5895 N.3     1  UNL1       -0.1706
     21 H         145.7100  139.6552  156.3266 H       1  UNL1        0.1491
     22 C         146.3500  141.3547  155.3906 C.3     1  UNL1        0.1944
     23 C         147.8054  141.7122  155.3272 C.3     1  UNL1        0.4134
     24 F         149.2607  142.0697  155.2638 F       1  UNL1       -0.1684
     25 F         147.8497  141.2771  153.8923 F       1  UNL1       -0.1684
     26 F         147.7609  142.1473  156.7621 F       1  UNL1       -0.1684
     27 C         141.5817  142.3212  166.3421 C.ar    1  UNL1       -0.0204
     28 C         140.3256  142.9128  166.9096 C.ar    1  UNL1       -0.0041
     29 C         140.2807  143.3408  168.3466 C.ar    1  UNL1        0.0020
     30 C         141.4921  143.1773  169.2159 C.ar    1  UNL1        0.0296
     31 C         142.7483  142.5857  168.6484 C.ar    1  UNL1        0.1398
     32 F         143.9596  142.4222  169.5178 F       1  UNL1       -0.2042
     33 C         142.7930  142.1577  167.2114 C.ar    1  UNL1        0.0254
     34 C         141.5747  140.5521  165.5748 C.3     1  UNL1        0.0215
     35 C         140.3501  139.6955  165.4446 C.3     1  UNL1        0.0723
     36 C         140.2911  139.6625  165.3029 C.3     1  UNL1        0.0893
     37 C         139.2925  140.7536  165.5530 C.3     1  UNL1        0.0386
     38 C         138.2585  141.0762  164.5154 C.3     1  UNL1        0.0594
     39 C         137.4468  141.0512  163.2542 C.3     1  UNL1        0.0174
     40 C         138.0028  139.9776  162.3663 C.3     1  UNL1        0.0174
     41 C         139.1581  139.3391  163.0788 C.3     1  UNL1        0.0594
     42 C         140.2555  138.8941  164.0152 C.3     1  UNL1        0.0386
     43 N         139.3161  140.0180  164.4070 N.3     1  UNL1       -0.2751
     44 C         142.9587  138.6126  164.6119 C.3     1  UNL1        0.0718
     45 C         142.7013  138.8044  166.0772 C.ar    1  UNL1        0.1207
     46 N         143.3912  138.6298  167.3976 N.ar    1  UNL1       -0.2309
     47 C         142.4415  139.0575  168.4770 C.ar    1  UNL1        0.0983
     48 C         142.5745  139.1040  169.9703 C.ar    1  UNL1        0.0206
     49 C         141.4305  139.5894  170.8104 C.ar    1  UNL1        0.0016
     50 C         140.1536  140.0283  170.1571 C.ar    1  UNL1        0.0016
     51 C         140.0207  139.9818  168.6637 C.ar    1  UNL1        0.0188
     52 C         141.1646  139.4964  167.8237 C.ar    1  UNL1        0.0785
     53 N         141.3252  139.3400  166.3405 N.ar    1  UNL1       -0.3167
@<TRIPOS>BOND
     1    44    45    1
     2    45    46   ar
     3    46    47   ar
     4    47    48   ar
     5    48    49   ar
     6    49    50   ar
     7    50    51   ar
     8    51    52   ar
     9    52    53   ar
    10    53    36    1
    11    36    37    1
    12    37    38    1
    13    38    39    1
    14    39    40    1
    15    40    41    1
    16    41    42    1
    17    41    43    1
    18    43    35    1
    19    35    34    1
    20    34     1    1
    21     1    27    1
    22    27    28   ar
    23    28    29   ar
    24    29    30   ar
    25    30    31   ar
    26    31    32    1
    27    31    33   ar
    28     1     2    1
    29     2     3    1
    30     3     4    1
    31     4     5   am
    32     5     6    2
    33     5     9    1
    34     9    10   ar
    35    10    11   ar
    36    11    17    1
    37    17    18    2
    38    17    19    2
    39    17    20    1
    40    20    22    1
    41    22    23    1
    42    23    24    1
    43    23    25    1
    44    23    26    1
    45    11    12   ar
    46    12    13    1
    47    12    14   ar
    48    14    15   ar
    49    15    16    1
    50     4     7    1
    51     7     8    1
    52    53    45   ar
    53    42    36    1
    54     8     1    1
    55    52    47   ar
    56    43    38    1
    57    33    27   ar
    58    15     9   ar
    59    20    21    1
@<TRIPOS>MOLECULE
*****
 53 59 0 0 0
SMALL
GASTEIGER

@<TRIPOS>ATOM
      1 C         140.4879  142.1832  161.3497 C.3     1  UNL1        0.0236
      2 C         141.4478  141.5835  160.3654 C.3     1  UNL1        0.0257
      3 C         140.9304  140.8969  159.1362 C.3     1  UNL1        0.0940
      4 N         139.4531  140.8100  158.8913 N.am    1  UNL1       -0.2760
      5 C         138.9357  140.1235  157.6621 C.2     1  UNL1        0.2499
      6 O         137.4584  140.0366  157.4172 O.2     1  UNL1       -0.2699
      7 C         138.4932  141.4098  159.8756 C.3     1  UNL1        0.0940
      8 C         139.0105  142.0963  161.1048 C.3     1  UNL1        0.0257
      9 C         139.8957  139.5238  156.6779 C.ar    1  UNL1        0.0656
     10 C         140.3244  138.0938  156.8241 C.ar    1  UNL1        0.0276
     11 C         141.2844  137.4942  155.8398 C.ar    1  UNL1        0.1494
     12 C         141.8157  138.3245  154.7092 C.ar    1  UNL1        0.1594
     13 F         142.7757  137.7248  153.7250 F       1  UNL1       -0.2027
     14 C         141.3871  139.7545  154.5630 C.ar    1  UNL1        0.0426
     15 C         140.4271  140.3541  155.5473 C.ar    1  UNL1        0.0643
     16 CL        139.9985  141.7841  155.4010 Cl      1  UNL1       -0.0820
     17 S         141.7130  136.0642  155.9861 S.O2    1  UNL1        0.0626
     18 O         140.5903  135.6358  155.0884 O.2     1  UNL1       -0.1529
     19 O         142.8357  136.4925  156.8838 O.2     1  UNL1       -0.1529
     20 N         142.1416  134.6341  156.1323 N.3     1  UNL1       -0.1706
     21 H         142.4655  134.3284  155.2147 H       1  UNL1        0.1491
     22 C         143.2156  134.2697  157.1141 C.3     1  UNL1        0.1944
     23 C         144.2382  133.2324  156.7562 C.3     1  UNL1        0.4134
     24 F         145.2609  132.1950  156.3984 F       1  UNL1       -0.1684
     25 F         143.6989  133.1832  155.3574 F       1  UNL1       -0.1684
     26 F         144.7776  133.2816  158.1551 F       1  UNL1       -0.1684
     27 C         139.9797  142.8995  162.5658 C.ar    1  UNL1       -0.0204
     28 C         139.3411  144.2498  162.4287 C.ar    1  UNL1       -0.0041
     29 C         138.8328  144.9661  163.6447 C.ar    1  UNL1        0.0020
     30 C         138.9633  144.3320  164.9978 C.ar    1  UNL1        0.0296
     31 C         139.6019  142.9816  165.1349 C.ar    1  UNL1        0.1398
     32 F         139.7323  142.3476  166.4880 F       1  UNL1       -0.2042
     33 C         140.1101  142.2654  163.9188 C.ar    1  UNL1        0.0254
     34 C         141.7887  142.5188  162.0169 C.3     1  UNL1        0.0215
     35 C         142.6942  143.5535  161.4173 C.3     1  UNL1        0.0723
     36 C         142.7284  143.5486  161.2641 C.3     1  UNL1        0.0893
     37 C         141.6902  144.6155  161.0794 C.3     1  UNL1        0.0386
     38 C         141.4067  145.1570  159.7096 C.3     1  UNL1        0.0594
     39 C         141.4571  145.3880  158.2283 C.3     1  UNL1        0.0174
     40 C         142.4922  144.4688  157.6508 C.3     1  UNL1        0.0174
     41 C         143.0817  143.6697  158.7750 C.3     1  UNL1        0.0594
     42 C         143.4831  143.0234  160.0790 C.3     1  UNL1        0.0386
     43 N         142.4108  144.0950  160.0475 N.3     1  UNL1       -0.2751
     44 C         142.5885  145.2183  163.6907 C.3     1  UNL1        0.0718
     45 C         142.9637  143.7836  163.9164 C.ar    1  UNL1        0.1207
     46 N         143.3153  142.8503  165.0368 N.ar    1  UNL1       -0.2309
     47 C         143.5806  141.4970  164.4469 C.ar    1  UNL1        0.0983
     48 C         143.9688  140.1890  165.0701 C.ar    1  UNL1        0.0206
     49 C         144.1694  138.9778  164.2082 C.ar    1  UNL1        0.0016
     50 C         143.9819  139.0747  162.7231 C.ar    1  UNL1        0.0016
     51 C         143.5937  140.3827  162.0999 C.ar    1  UNL1        0.0188
     52 C         143.3931  141.5938  162.9618 C.ar    1  UNL1        0.0785
     53 N         143.0118  143.0070  162.6340 N.ar    1  UNL1       -0.3167
@<TRIPOS>BOND
     1    44    45    1
     2    45    46   ar
     3    46    47   ar
     4    47    48   ar
     5    48    49   ar
     6    49    50   ar
     7    50    51   ar
     8    51    52   ar
     9    52    53   ar
    10    53    36    1
    11    36    37    1
    12    37    38    1
    13    38    39    1
    14    39    40    1
    15    40    41    1
    16    41    42    1
    17    41    43    1
    18    43    35    1
    19    35    34    1
    20    34     1    1
    21     1    27    1
    22    27    28   ar
    23    28    29   ar
    24    29    30   ar
    25    30    31   ar
    26    31    32    1
    27    31    33   ar
    28     1     2    1
    29     2     3    1
    30     3     4    1
    31     4     5   am
    32     5     6    2
    33     5     9    1
    34     9    10   ar
    35    10    11   ar
    36    11    17    1
    37    17    18    2
    38    17    19    2
    39    17    20    1
    40    20    22    1
    41    22    23    1
    42    23    24    1
    43    23    25    1
    44    23    26    1
    45    11    12   ar
    46    12    13    1
    47    12    14   ar
    48    14    15   ar
    49    15    16    1
    50     4     7    1
    51     7     8    1
    52    53    45   ar
    53    42    36    1
    54     8     1    1
    55    52    47   ar
    56    43    38    1
    57    33    27   ar
    58    15     9   ar
    59    20    21    1
@<TRIPOS>MOLECULE
*****
 53 59 0 0 0
SMALL
GASTEIGER

@<TRIPOS>ATOM
      1 C         141.8143  142.0394  162.5289 C.3     1  UNL1        0.0236
      2 C         141.4783  141.3891  161.2196 C.3     1  UNL1        0.0257
      3 C         140.8443  142.1933  160.1236 C.3     1  UNL1        0.0940
      4 N         140.5462  143.6478  160.3368 N.am    1  UNL1       -0.2760
      5 C         139.9122  144.4520  159.2407 C.2     1  UNL1        0.2499
      6 O         139.6142  145.9066  159.4539 O.2     1  UNL1       -0.2699
      7 C         140.8822  144.2981  161.6461 C.3     1  UNL1        0.0940
      8 C         141.5162  143.4940  162.7421 C.3     1  UNL1        0.0257
      9 C         139.5763  143.8016  157.9315 C.ar    1  UNL1        0.0656
     10 C         138.4027  142.8724  157.8349 C.ar    1  UNL1        0.0276
     11 C         138.0669  142.2221  156.5256 C.ar    1  UNL1        0.1494
     12 C         138.9046  142.5009  155.3129 C.ar    1  UNL1        0.1594
     13 F         138.5687  141.8505  154.0037 F       1  UNL1       -0.2027
     14 C         140.0782  143.4301  155.4095 C.ar    1  UNL1        0.0426
     15 C         140.4140  144.0804  156.7188 C.ar    1  UNL1        0.0643
     16 CL        141.5876  145.0096  156.8155 Cl      1  UNL1       -0.0820
     17 S         136.8933  141.2929  156.4289 S.O2    1  UNL1        0.0626
     18 O         137.6765  140.2297  157.1405 O.2     1  UNL1       -0.1529
     19 O         136.1102  142.3561  155.7174 O.2     1  UNL1       -0.1529
     20 N         135.7197  140.3636  156.3323 N.3     1  UNL1       -0.1706
     21 H         135.4363  140.1470  157.2879 H       1  UNL1        0.1491
     22 C         134.4825  140.7917  155.6002 C.3     1  UNL1        0.1944
     23 C         133.1304  140.4084  156.1244 C.3     1  UNL1        0.4134
     24 F         131.7783  140.0250  156.6486 F       1  UNL1       -0.1684
     25 F         132.6306  141.7957  155.8498 F       1  UNL1       -0.1684
     26 F         133.6303  139.0209  156.3990 F       1  UNL1       -0.1684
     27 C         142.3140  142.2046  163.9336 C.ar    1  UNL1       -0.0204
     28 C         141.5546  141.5979  165.0760 C.ar    1  UNL1       -0.0041
     29 C         142.0543  141.7630  166.4807 C.ar    1  UNL1        0.0020
     30 C         143.3135  142.5349  166.7428 C.ar    1  UNL1        0.0296
     31 C         144.0729  143.1416  165.6003 C.ar    1  UNL1        0.1398
     32 F         145.3320  143.9134  165.8625 F       1  UNL1       -0.2042
     33 C         143.5731  142.9764  164.1957 C.ar    1  UNL1        0.0254
     34 C         142.2858  140.6423  162.8035 C.3     1  UNL1        0.0215
     35 C         143.4487  140.0796  162.0409 C.3     1  UNL1        0.0723
     36 C         143.4592  140.0881  161.8845 C.3     1  UNL1        0.0893
     37 C         144.3019  141.3125  162.0869 C.3     1  UNL1        0.0386
     38 C         144.8492  142.0506  160.9013 C.3     1  UNL1        0.0594
     39 C         145.1666  142.4475  159.4901 C.3     1  UNL1        0.0174
     40 C         144.5096  141.4600  158.5719 C.3     1  UNL1        0.0174
     41 C         143.7860  140.4527  159.4157 C.3     1  UNL1        0.0594
     42 C         143.1639  139.6020  160.4966 C.3     1  UNL1        0.0386
     43 N         143.9959  140.8178  160.8554 N.3     1  UNL1       -0.2751
     44 C         145.0300  139.6433  164.3402 C.3     1  UNL1        0.0718
     45 C         143.6398  139.0801  164.3536 C.ar    1  UNL1        0.1207
     46 N         142.7184  138.3154  165.2571 N.ar    1  UNL1       -0.2309
     47 C         141.4210  138.1126  164.5319 C.ar    1  UNL1        0.0983
     48 C         140.1463  137.4284  164.9278 C.ar    1  UNL1        0.0206
     49 C         138.9911  137.3835  163.9720 C.ar    1  UNL1        0.0016
     50 C         139.1107  138.0229  162.6204 C.ar    1  UNL1        0.0016
     51 C         140.3855  138.7071  162.2245 C.ar    1  UNL1        0.0188
     52 C         141.5407  138.7520  163.1803 C.ar    1  UNL1        0.0785
     53 N         142.9119  139.3499  163.0701 N.ar    1  UNL1       -0.3167
@<TRIPOS>BOND
     1    44    45    1
     2    45    46   ar
     3    46    47   ar
     4    47    48   ar
     5    48    49   ar
     6    49    50   ar
     7    50    51   ar
     8    51    52   ar
     9    52    53   ar
    10    53    36    1
    11    36    37    1
    12    37    38    1
    13    38    39    1
    14    39    40    1
    15    40    41    1
    16    41    42    1
    17    41    43    1
    18    43    35    1
    19    35    34    1
    20    34     1    1
    21     1    27    1
    22    27    28   ar
    23    28    29   ar
    24    29    30   ar
    25    30    31   ar
    26    31    32    1
    27    31    33   ar
    28     1     2    1
    29     2     3    1
    30     3     4    1
    31     4     5   am
    32     5     6    2
    33     5     9    1
    34     9    10   ar
    35    10    11   ar
    36    11    17    1
    37    17    18    2
    38    17    19    2
    39    17    20    1
    40    20    22    1
    41    22    23    1
    42    23    24    1
    43    23    25    1
    44    23    26    1
    45    11    12   ar
    46    12    13    1
    47    12    14   ar
    48    14    15   ar
    49    15    16    1
    50     4     7    1
    51     7     8    1
    52    53    45   ar
    53    42    36    1
    54     8     1    1
    55    52    47   ar
    56    43    38    1
    57    33    27   ar
    58    15     9   ar
    59    20    21    1
@<TRIPOS>MOLECULE
*****
 53 59 0 0 0
SMALL
GASTEIGER

@<TRIPOS>ATOM
      1 C         139.8511  140.1633  162.2679 C.3     1  UNL1        0.0236
      2 C         140.5600  141.2733  161.5499 C.3     1  UNL1        0.0257
      3 C         140.3277  141.4866  160.0834 C.3     1  UNL1        0.0940
      4 N         139.3865  140.5900  159.3349 N.am    1  UNL1       -0.2760
      5 C         139.1542  140.8034  157.8684 C.2     1  UNL1        0.2499
      6 O         138.2130  139.9067  157.1200 O.2     1  UNL1       -0.2699
      7 C         138.6776  139.4801  160.0529 C.3     1  UNL1        0.0940
      8 C         138.9099  139.2667  161.5193 C.3     1  UNL1        0.0257
      9 C         139.8631  141.9133  157.1505 C.ar    1  UNL1        0.0656
     10 C         139.1661  143.2209  156.9168 C.ar    1  UNL1        0.0276
     11 C         139.8751  144.3308  156.1989 C.ar    1  UNL1        0.1494
     12 C         141.2810  144.1332  155.7147 C.ar    1  UNL1        0.1594
     13 F         141.9899  145.2432  154.9968 F       1  UNL1       -0.2027
     14 C         141.9779  142.8257  155.9485 C.ar    1  UNL1        0.0426
     15 C         141.2690  141.7157  156.6664 C.ar    1  UNL1        0.0643
     16 CL        141.9659  140.4082  156.9001 Cl      1  UNL1       -0.0820
     17 S         139.1782  145.6383  155.9651 S.O2    1  UNL1        0.0626
     18 O         139.9827  146.2639  157.0657 O.2     1  UNL1       -0.1529
     19 O         138.3737  145.0127  154.8645 O.2     1  UNL1       -0.1529
     20 N         138.4812  146.9459  155.7314 N.3     1  UNL1       -0.1706
     21 H         137.4835  146.7741  155.8552 H       1  UNL1        0.1491
     22 C         138.8230  148.1390  156.5739 C.3     1  UNL1        0.1944
     23 C         138.4276  149.5138  156.1227 C.3     1  UNL1        0.4134
     24 F         138.0322  150.8886  155.6716 F       1  UNL1       -0.1684
     25 F         139.0268  149.2437  154.7744 F       1  UNL1       -0.1684
     26 F         137.8284  149.7839  157.4712 F       1  UNL1       -0.1684
     27 C         139.4167  139.2552  163.3799 C.ar    1  UNL1       -0.0204
     28 C         139.8036  137.8061  163.3594 C.ar    1  UNL1       -0.0041
     29 C         139.3692  136.8980  164.4714 C.ar    1  UNL1        0.0020
     30 C         138.5478  137.4390  165.6040 C.ar    1  UNL1        0.0296
     31 C         138.1609  138.8881  165.6245 C.ar    1  UNL1        0.1398
     32 F         137.3395  139.4290  166.7570 F       1  UNL1       -0.2042
     33 C         138.5954  139.7962  164.5124 C.ar    1  UNL1        0.0254
     34 C         140.6414  140.7445  163.4025 C.3     1  UNL1        0.0215
     35 C         142.1241  140.5280  163.4723 C.3     1  UNL1        0.0723
     36 C         142.2111  140.5503  163.3436 C.3     1  UNL1        0.0893
     37 C         142.2111  139.0591  163.1809 C.3     1  UNL1        0.0386
     38 C         142.9325  138.4307  162.0256 C.3     1  UNL1        0.0594
     39 C         143.7474  138.2530  160.7788 C.3     1  UNL1        0.0174
     40 C         144.1639  139.6121  160.2997 C.3     1  UNL1        0.0174
     41 C         143.6065  140.6297  161.2504 C.3     1  UNL1        0.0594
     42 C         142.9326  141.4130  162.3511 C.3     1  UNL1        0.0386
     43 N         142.8455  139.8996  162.3171 N.3     1  UNL1       -0.2751
     44 C         142.1051  139.3054  166.0147 C.3     1  UNL1        0.0718
     45 C         141.3865  140.6157  165.8854 C.ar    1  UNL1        0.1207
     46 N         140.5778  141.5695  166.7139 N.ar    1  UNL1       -0.2309
     47 C         140.1813  142.7220  165.8394 C.ar    1  UNL1        0.0983
     48 C         139.3799  143.9600  166.1129 C.ar    1  UNL1        0.0206
     49 C         139.1420  144.9566  165.0173 C.ar    1  UNL1        0.0016
     50 C         139.7056  144.7151  163.6484 C.ar    1  UNL1        0.0016
     51 C         140.5071  143.4770  163.3750 C.ar    1  UNL1        0.0188
     52 C         140.7449  142.4804  164.4705 C.ar    1  UNL1        0.0785
     53 N         141.4897  141.1787  164.4989 N.ar    1  UNL1       -0.3167
@<TRIPOS>BOND
     1    44    45    1
     2    45    46   ar
     3    46    47   ar
     4    47    48   ar
     5    48    49   ar
     6    49    50   ar
     7    50    51   ar
     8    51    52   ar
     9    52    53   ar
    10    53    36    1
    11    36    37    1
    12    37    38    1
    13    38    39    1
    14    39    40    1
    15    40    41    1
    16    41    42    1
    17    41    43    1
    18    43    35    1
    19    35    34    1
    20    34     1    1
    21     1    27    1
    22    27    28   ar
    23    28    29   ar
    24    29    30   ar
    25    30    31   ar
    26    31    32    1
    27    31    33   ar
    28     1     2    1
    29     2     3    1
    30     3     4    1
    31     4     5   am
    32     5     6    2
    33     5     9    1
    34     9    10   ar
    35    10    11   ar
    36    11    17    1
    37    17    18    2
    38    17    19    2
    39    17    20    1
    40    20    22    1
    41    22    23    1
    42    23    24    1
    43    23    25    1
    44    23    26    1
    45    11    12   ar
    46    12    13    1
    47    12    14   ar
    48    14    15   ar
    49    15    16    1
    50     4     7    1
    51     7     8    1
    52    53    45   ar
    53    42    36    1
    54     8     1    1
    55    52    47   ar
    56    43    38    1
    57    33    27   ar
    58    15     9   ar
    59    20    21    1
@<TRIPOS>MOLECULE
*****
 53 59 0 0 0
SMALL
GASTEIGER

@<TRIPOS>ATOM
      1 C         140.2659  140.2637  161.8072 C.3     1  UNL1        0.0236
      2 C         140.9641  141.2270  160.8935 C.3     1  UNL1        0.0257
      3 C         140.3632  141.5674  159.5619 C.3     1  UNL1        0.0940
      4 N         139.0642  140.9446  159.1440 N.am    1  UNL1       -0.2760
      5 C         138.4633  141.2850  157.8124 C.2     1  UNL1        0.2499
      6 O         137.1643  140.6621  157.3945 O.2     1  UNL1       -0.2699
      7 C         138.3660  139.9813  160.0577 C.3     1  UNL1        0.0940
      8 C         138.9668  139.6409  161.3892 C.3     1  UNL1        0.0257
      9 C         139.1616  142.2482  156.8988 C.ar    1  UNL1        0.0656
     10 C         138.9773  143.7253  157.0838 C.ar    1  UNL1        0.0276
     11 C         139.6755  144.6884  156.1701 C.ar    1  UNL1        0.1494
     12 C         140.5581  144.1745  155.0715 C.ar    1  UNL1        0.1594
     13 F         141.2563  145.1377  154.1579 F       1  UNL1       -0.2027
     14 C         140.7424  142.6974  154.8865 C.ar    1  UNL1        0.0426
     15 C         140.0441  141.7342  155.8001 C.ar    1  UNL1        0.0643
     16 CL        140.2284  140.2572  155.6151 Cl      1  UNL1       -0.0820
     17 S         139.4913  146.1655  156.3551 S.O2    1  UNL1        0.0626
     18 O         140.5479  146.1640  157.4198 O.2     1  UNL1       -0.1529
     19 O         138.4346  146.1670  155.2905 O.2     1  UNL1       -0.1529
     20 N         139.3070  147.6427  156.5402 N.3     1  UNL1       -0.1706
     21 H         140.1837  148.0039  156.9162 H       1  UNL1        0.1491
     22 C         138.9503  148.5067  155.3670 C.3     1  UNL1        0.1944
     23 C         138.5910  149.9476  155.5786 C.3     1  UNL1        0.4134
     24 F         138.2317  151.3885  155.7901 F       1  UNL1       -0.1684
     25 F         139.0311  150.2627  154.1796 F       1  UNL1       -0.1684
     26 F         138.1510  149.6324  156.9776 F       1  UNL1       -0.1684
     27 C         139.9849  139.4143  163.0112 C.ar    1  UNL1       -0.0204
     28 C         140.7867  138.1703  163.2551 C.ar    1  UNL1       -0.0041
     29 C         140.5057  137.3209  164.4591 C.ar    1  UNL1        0.0020
     30 C         139.4229  137.7156  165.4192 C.ar    1  UNL1        0.0296
     31 C         138.6212  138.9597  165.1753 C.ar    1  UNL1        0.1398
     32 F         137.5385  139.3544  166.1355 F       1  UNL1       -0.2042
     33 C         138.9022  139.8090  163.9713 C.ar    1  UNL1        0.0254
     34 C         141.4673  140.5915  162.6432 C.3     1  UNL1        0.0215
     35 C         141.6465  141.9777  163.1879 C.3     1  UNL1        0.0723
     36 C         141.6218  142.1055  163.1002 C.3     1  UNL1        0.0893
     37 C         140.2519  142.1614  163.7088 C.3     1  UNL1        0.0386
     38 C         139.2998  143.2512  163.3142 C.3     1  UNL1        0.0594
     39 C         138.7131  144.4622  162.6513 C.3     1  UNL1        0.0174
     40 C         139.7452  145.0269  161.7208 C.3     1  UNL1        0.0174
     41 C         140.9697  144.1650  161.8085 C.3     1  UNL1        0.0594
     42 C         142.0395  143.1395  162.0971 C.3     1  UNL1        0.0386
     43 N         140.6944  143.0675  162.7933 N.3     1  UNL1       -0.2751
     44 C         143.6896  141.0664  161.2726 C.3     1  UNL1        0.0718
     45 C         143.6514  140.4306  162.6307 C.ar    1  UNL1        0.1207
     46 N         144.3591  139.3729  163.4247 N.ar    1  UNL1       -0.2309
     47 C         143.7190  139.3043  164.7795 C.ar    1  UNL1        0.0983
     48 C         143.9982  138.4485  165.9793 C.ar    1  UNL1        0.0206
     49 C         143.1742  138.6079  167.2224 C.ar    1  UNL1        0.0016
     50 C         142.0709  139.6232  167.2658 C.ar    1  UNL1        0.0016
     51 C         141.7916  140.4791  166.0660 C.ar    1  UNL1        0.0188
     52 C         142.6157  140.3196  164.8229 C.ar    1  UNL1        0.0785
     53 N         142.5739  141.0157  163.4948 N.ar    1  UNL1       -0.3167
@<TRIPOS>BOND
     1    44    45    1
     2    45    46   ar
     3    46    47   ar
     4    47    48   ar
     5    48    49   ar
     6    49    50   ar
     7    50    51   ar
     8    51    52   ar
     9    52    53   ar
    10    53    36    1
    11    36    37    1
    12    37    38    1
    13    38    39    1
    14    39    40    1
    15    40    41    1
    16    41    42    1
    17    41    43    1
    18    43    35    1
    19    35    34    1
    20    34     1    1
    21     1    27    1
    22    27    28   ar
    23    28    29   ar
    24    29    30   ar
    25    30    31   ar
    26    31    32    1
    27    31    33   ar
    28     1     2    1
    29     2     3    1
    30     3     4    1
    31     4     5   am
    32     5     6    2
    33     5     9    1
    34     9    10   ar
    35    10    11   ar
    36    11    17    1
    37    17    18    2
    38    17    19    2
    39    17    20    1
    40    20    22    1
    41    22    23    1
    42    23    24    1
    43    23    25    1
    44    23    26    1
    45    11    12   ar
    46    12    13    1
    47    12    14   ar
    48    14    15   ar
    49    15    16    1
    50     4     7    1
    51     7     8    1
    52    53    45   ar
    53    42    36    1
    54     8     1    1
    55    52    47   ar
    56    43    38    1
    57    33    27   ar
    58    15     9   ar
    59    20    21    1
@<TRIPOS>MOLECULE
*****
 53 59 0 0 0
SMALL
GASTEIGER

@<TRIPOS>ATOM
      1 C         141.1420  140.5729  159.9080 C.3     1  UNL1        0.0236
      2 C         140.9156  141.3620  161.1634 C.3     1  UNL1        0.0257
      3 C         141.7563  141.0978  162.3772 C.3     1  UNL1        0.0940
      4 N         142.8235  140.0445  162.3356 N.am    1  UNL1       -0.2760
      5 C         143.6642  139.7803  163.5495 C.2     1  UNL1        0.2499
      6 O         144.7314  138.7270  163.5078 O.2     1  UNL1       -0.2699
      7 C         143.0499  139.2554  161.0802 C.3     1  UNL1        0.0940
      8 C         142.2092  139.5196  159.8664 C.3     1  UNL1        0.0257
      9 C         143.4378  140.5694  164.8048 C.ar    1  UNL1        0.0656
     10 C         142.6222  139.9863  165.9205 C.ar    1  UNL1        0.0276
     11 C         142.3958  140.7755  167.1758 C.ar    1  UNL1        0.1494
     12 C         142.9850  142.1478  167.3155 C.ar    1  UNL1        0.1594
     13 F         142.7585  142.9370  168.5709 F       1  UNL1       -0.2027
     14 C         143.8006  142.7310  166.1999 C.ar    1  UNL1        0.0426
     15 C         144.0270  141.9418  164.9445 C.ar    1  UNL1        0.0643
     16 CL        144.8426  142.5249  163.8289 Cl      1  UNL1       -0.0820
     17 S         141.5801  140.1923  168.2915 S.O2    1  UNL1        0.0626
     18 O         142.8360  139.9076  169.0608 O.2     1  UNL1       -0.1529
     19 O         140.3243  140.4771  167.5222 O.2     1  UNL1       -0.1529
     20 N         140.7645  139.6091  169.4072 N.3     1  UNL1       -0.1706
     21 H         141.1905  138.7137  169.6464 H       1  UNL1        0.1491
     22 C         140.5997  140.3670  170.6911 C.3     1  UNL1        0.1944
     23 C         140.2608  141.8279  170.6615 C.3     1  UNL1        0.4134
     24 F         139.9219  143.2888  170.6318 F       1  UNL1       -0.1684
     25 F         141.6222  142.1547  171.2000 F       1  UNL1       -0.1684
     26 F         138.8994  141.5011  170.1229 F       1  UNL1       -0.1684
     27 C         140.9780  140.0915  158.4967 C.ar    1  UNL1       -0.0204
     28 C         141.4592  140.9372  157.3552 C.ar    1  UNL1       -0.0041
     29 C         141.2953  140.4558  155.9440 C.ar    1  UNL1        0.0020
     30 C         140.6501  139.1287  155.6745 C.ar    1  UNL1        0.0296
     31 C         140.1689  138.2830  156.8161 C.ar    1  UNL1        0.1398
     32 F         139.5237  136.9561  156.5466 F       1  UNL1       -0.2042
     33 C         140.3329  138.7645  158.2273 C.ar    1  UNL1        0.0254
     34 C         140.0179  141.4590  159.4595 C.3     1  UNL1        0.0215
     35 C         138.6391  141.2613  160.0162 C.3     1  UNL1        0.0723
     36 C         138.6159  141.2524  160.1712 C.3     1  UNL1        0.0893
     37 C         138.5880  139.7623  160.0006 C.3     1  UNL1        0.0386
     38 C         138.3802  138.8748  161.1919 C.3     1  UNL1        0.0594
     39 C         138.1555  138.4040  162.5982 C.3     1  UNL1        0.0174
     40 C         138.0677  139.6121  163.4830 C.3     1  UNL1        0.0174
     41 C         138.2381  140.8295  162.6234 C.3     1  UNL1        0.0594
     42 C         138.4359  141.8548  161.5330 C.3     1  UNL1        0.0386
     43 N         138.4313  140.3738  161.2074 N.3     1  UNL1       -0.2751
     44 C         137.3992  140.6926  157.5440 C.3     1  UNL1        0.0718
     45 C         138.2445  141.9299  157.6123 C.ar    1  UNL1        0.1207
     46 N         138.7100  143.0535  156.7343 N.ar    1  UNL1       -0.2309
     47 C         139.5769  143.9579  157.5593 C.ar    1  UNL1        0.0983
     48 C         140.3113  145.2225  157.2260 C.ar    1  UNL1        0.0206
     49 C         141.1160  145.9226  158.2806 C.ar    1  UNL1        0.0016
     50 C         141.1863  145.3580  159.6685 C.ar    1  UNL1        0.0016
     51 C         140.4518  144.0933  160.0018 C.ar    1  UNL1        0.0188
     52 C         139.6471  143.3932  158.9472 C.ar    1  UNL1        0.0785
     53 N         138.8236  142.1399  158.9799 N.ar    1  UNL1       -0.3167
@<TRIPOS>BOND
     1    44    45    1
     2    45    46   ar
     3    46    47   ar
     4    47    48   ar
     5    48    49   ar
     6    49    50   ar
     7    50    51   ar
     8    51    52   ar
     9    52    53   ar
    10    53    36    1
    11    36    37    1
    12    37    38    1
    13    38    39    1
    14    39    40    1
    15    40    41    1
    16    41    42    1
    17    41    43    1
    18    43    35    1
    19    35    34    1
    20    34     1    1
    21     1    27    1
    22    27    28   ar
    23    28    29   ar
    24    29    30   ar
    25    30    31   ar
    26    31    32    1
    27    31    33   ar
    28     1     2    1
    29     2     3    1
    30     3     4    1
    31     4     5   am
    32     5     6    2
    33     5     9    1
    34     9    10   ar
    35    10    11   ar
    36    11    17    1
    37    17    18    2
    38    17    19    2
    39    17    20    1
    40    20    22    1
    41    22    23    1
    42    23    24    1
    43    23    25    1
    44    23    26    1
    45    11    12   ar
    46    12    13    1
    47    12    14   ar
    48    14    15   ar
    49    15    16    1
    50     4     7    1
    51     7     8    1
    52    53    45   ar
    53    42    36    1
    54     8     1    1
    55    52    47   ar
    56    43    38    1
    57    33    27   ar
    58    15     9   ar
    59    20    21    1
@<TRIPOS>MOLECULE
*****
 53 59 0 0 0
SMALL
GASTEIGER

@<TRIPOS>ATOM
      1 C         140.8084  141.1965  161.1048 C.3     1  UNL1        0.0236
      2 C         140.2847  139.9604  160.4357 C.3     1  UNL1        0.0257
      3 C         141.0565  139.3302  159.3145 C.3     1  UNL1        0.0940
      4 N         142.3519  139.9361  158.8623 N.am    1  UNL1       -0.2760
      5 C         143.1237  139.3060  157.7410 C.2     1  UNL1        0.2499
      6 O         144.4192  139.9119  157.2888 O.2     1  UNL1       -0.2699
      7 C         142.8756  141.1723  159.5313 C.3     1  UNL1        0.0940
      8 C         142.1039  141.8025  160.6525 C.3     1  UNL1        0.0257
      9 C         142.6000  138.0698  157.0720 C.ar    1  UNL1        0.0656
     10 C         143.3432  136.7736  157.2035 C.ar    1  UNL1        0.0276
     11 C         142.8194  135.5374  156.5344 C.ar    1  UNL1        0.1494
     12 C         141.5523  135.5976  155.7339 C.ar    1  UNL1        0.1594
     13 F         141.0285  134.3614  155.0649 F       1  UNL1       -0.2027
     14 C         140.8090  136.8938  155.6024 C.ar    1  UNL1        0.0426
     15 C         141.3329  138.1299  156.2714 C.ar    1  UNL1        0.0643
     16 CL        140.5896  139.4262  156.1399 Cl      1  UNL1       -0.0820
     17 S         143.5626  134.2412  156.6659 S.O2    1  UNL1        0.0626
     18 O         143.3848  134.2903  158.1546 O.2     1  UNL1       -0.1529
     19 O         143.7405  134.1921  155.1773 O.2     1  UNL1       -0.1529
     20 N         144.3059  132.9449  156.7975 N.3     1  UNL1       -0.1706
     21 H         144.9791  133.0669  157.5541 H       1  UNL1        0.1491
     22 C         143.5574  131.6770  157.0841 C.3     1  UNL1        0.1944
     23 C         144.2159  130.5770  157.8628 C.3     1  UNL1        0.4134
     24 F         144.8745  129.4770  158.6415 F       1  UNL1       -0.1684
     25 F         143.1324  129.6295  157.4407 F       1  UNL1       -0.1684
     26 F         145.2995  131.5246  158.2849 F       1  UNL1       -0.1684
     27 C         140.8923  142.3630  162.0442 C.ar    1  UNL1       -0.0204
     28 C         141.2263  142.1396  163.4893 C.ar    1  UNL1       -0.0041
     29 C         141.3103  143.3060  164.4288 C.ar    1  UNL1        0.0020
     30 C         141.0602  144.6958  163.9229 C.ar    1  UNL1        0.0296
     31 C         140.7262  144.9192  162.4777 C.ar    1  UNL1        0.1398
     32 F         140.4762  146.3090  161.9719 F       1  UNL1       -0.2042
     33 C         140.6423  143.7527  161.5384 C.ar    1  UNL1        0.0254
     34 C         139.5421  140.9957  161.8832 C.3     1  UNL1        0.0215
     35 C         138.2140  141.2495  161.2336 C.3     1  UNL1        0.0723
     36 C         138.1812  141.1857  161.0940 C.3     1  UNL1        0.0893
     37 C         138.5265  142.5166  160.4940 C.3     1  UNL1        0.0386
     38 C         138.4433  142.7143  159.0095 C.3     1  UNL1        0.0594
     39 C         138.2261  142.4628  157.5467 C.3     1  UNL1        0.0174
     40 C         137.7794  141.0403  157.3823 C.3     1  UNL1        0.0174
     41 C         137.7205  140.4127  158.7434 C.3     1  UNL1        0.0594
     42 C         137.7528  140.0528  160.2093 C.3     1  UNL1        0.0386
     43 N         138.1308  141.4473  159.7491 N.3     1  UNL1       -0.2751
     44 C         137.5434  143.3273  163.0182 C.3     1  UNL1        0.0718
     45 C         137.9590  142.0195  163.6239 C.ar    1  UNL1        0.1207
     46 N         138.1735  141.3930  164.9698 N.ar    1  UNL1       -0.2309
     47 C         138.6116  139.9744  164.7563 C.ar    1  UNL1        0.0983
     48 C         138.9666  138.8782  165.7167 C.ar    1  UNL1        0.0206
     49 C         139.3777  137.5317  165.1991 C.ar    1  UNL1        0.0016
     50 C         139.4339  137.2814  163.7212 C.ar    1  UNL1        0.0016
     51 C         139.0790  138.3776  162.7609 C.ar    1  UNL1        0.0188
     52 C         138.6678  139.7240  163.2784 C.ar    1  UNL1        0.0785
     53 N         138.2645  140.9880  162.5786 N.ar    1  UNL1       -0.3167
@<TRIPOS>BOND
     1    44    45    1
     2    45    46   ar
     3    46    47   ar
     4    47    48   ar
     5    48    49   ar
     6    49    50   ar
     7    50    51   ar
     8    51    52   ar
     9    52    53   ar
    10    53    36    1
    11    36    37    1
    12    37    38    1
    13    38    39    1
    14    39    40    1
    15    40    41    1
    16    41    42    1
    17    41    43    1
    18    43    35    1
    19    35    34    1
    20    34     1    1
    21     1    27    1
    22    27    28   ar
    23    28    29   ar
    24    29    30   ar
    25    30    31   ar
    26    31    32    1
    27    31    33   ar
    28     1     2    1
    29     2     3    1
    30     3     4    1
    31     4     5   am
    32     5     6    2
    33     5     9    1
    34     9    10   ar
    35    10    11   ar
    36    11    17    1
    37    17    18    2
    38    17    19    2
    39    17    20    1
    40    20    22    1
    41    22    23    1
    42    23    24    1
    43    23    25    1
    44    23    26    1
    45    11    12   ar
    46    12    13    1
    47    12    14   ar
    48    14    15   ar
    49    15    16    1
    50     4     7    1
    51     7     8    1
    52    53    45   ar
    53    42    36    1
    54     8     1    1
    55    52    47   ar
    56    43    38    1
    57    33    27   ar
    58    15     9   ar
    59    20    21    1
@<TRIPOS>MOLECULE
*****
 53 59 0 0 0
SMALL
GASTEIGER

@<TRIPOS>ATOM
      1 C         141.0299  141.2805  162.7557 C.3     1  UNL1        0.0236
      2 C         140.2698  140.4117  161.7978 C.3     1  UNL1        0.0257
      3 C         140.1756  140.7948  160.3506 C.3     1  UNL1        0.0940
      4 N         140.8416  142.0466  159.8612 N.am    1  UNL1       -0.2760
      5 C         140.7475  142.4296  158.4140 C.2     1  UNL1        0.2499
      6 O         141.4135  143.6814  157.9246 O.2     1  UNL1       -0.2699
      7 C         141.6017  142.9153  160.8191 C.3     1  UNL1        0.0940
      8 C         141.6959  142.5323  162.2663 C.3     1  UNL1        0.0257
      9 C         139.9873  141.5608  157.4562 C.ar    1  UNL1        0.0656
     10 C         138.5343  141.8256  157.1946 C.ar    1  UNL1        0.0276
     11 C         137.7742  140.9567  156.2368 C.ar    1  UNL1        0.1494
     12 C         138.4672  139.8231  155.5406 C.ar    1  UNL1        0.1594
     13 F         137.7071  138.9543  154.5828 F       1  UNL1       -0.2027
     14 C         139.9203  139.5583  155.8023 C.ar    1  UNL1        0.0426
     15 C         140.6803  140.4271  156.7601 C.ar    1  UNL1        0.0643
     16 CL        142.1334  140.1623  157.0217 Cl      1  UNL1       -0.0820
     17 S         136.3211  141.2215  155.9751 S.O2    1  UNL1        0.0626
     18 O         136.6908  142.1234  154.8349 O.2     1  UNL1       -0.1529
     19 O         135.9515  140.3197  157.1153 O.2     1  UNL1       -0.1529
     20 N         134.8680  141.4864  155.7134 N.3     1  UNL1       -0.1706
     21 H         134.8190  142.0402  154.8583 H       1  UNL1        0.1491
     22 C         133.9158  140.3401  155.5421 C.3     1  UNL1        0.1944
     23 C         132.5833  140.3627  156.2306 C.3     1  UNL1        0.4134
     24 F         131.2509  140.3853  156.9190 F       1  UNL1       -0.1684
     25 F         132.4208  141.8093  155.8686 F       1  UNL1       -0.1684
     26 F         132.7459  138.9161  156.5926 F       1  UNL1       -0.1684
     27 C         141.6313  141.7741  164.0382 C.ar    1  UNL1       -0.0204
     28 C         143.1188  141.7449  164.2291 C.ar    1  UNL1       -0.0041
     29 C         143.7202  142.2385  165.5116 C.ar    1  UNL1        0.0020
     30 C         142.8340  142.7613  166.6031 C.ar    1  UNL1        0.0296
     31 C         141.3464  142.7905  166.4122 C.ar    1  UNL1        0.1398
     32 F         140.4604  143.3132  167.5037 F       1  UNL1       -0.2042
     33 C         140.7452  142.2968  165.1296 C.ar    1  UNL1        0.0254
     34 C         140.5728  140.2002  163.6904 C.3     1  UNL1        0.0215
     35 C         141.1589  138.8231  163.5890 C.3     1  UNL1        0.0723
     36 C         141.1775  138.7562  163.4483 C.3     1  UNL1        0.0893
     37 C         142.6195  139.1600  163.5353 C.3     1  UNL1        0.0386
     38 C         143.5608  138.8260  162.4162 C.3     1  UNL1        0.0594
     39 C         144.1094  138.3046  161.1211 C.3     1  UNL1        0.0174
     40 C         142.9878  137.6454  160.3745 C.3     1  UNL1        0.0174
     41 C         141.7460  137.7594  161.2081 C.3     1  UNL1        0.0594
     42 C         140.6768  138.0183  162.2422 C.3     1  UNL1        0.0386
     43 N         142.1001  138.4890  162.4700 N.3     1  UNL1       -0.2751
     44 C         138.2686  139.0275  163.0475 C.3     1  UNL1        0.0718
     45 C         138.7489  139.2465  164.4516 C.ar    1  UNL1        0.1207
     46 N         138.2105  139.5795  165.8114 N.ar    1  UNL1       -0.2309
     47 C         139.3651  139.6290  166.7677 C.ar    1  UNL1        0.0983
     48 C         139.4382  139.9104  168.2393 C.ar    1  UNL1        0.0206
     49 C         140.7632  139.8893  168.9419 C.ar    1  UNL1        0.0016
     50 C         142.0152  139.5869  168.1731 C.ar    1  UNL1        0.0016
     51 C         141.9421  139.3056  166.7015 C.ar    1  UNL1        0.0188
     52 C         140.6171  139.3266  165.9989 C.ar    1  UNL1        0.0785
     53 N         140.2362  139.0902  164.5674 N.ar    1  UNL1       -0.3167
@<TRIPOS>BOND
     1    44    45    1
     2    45    46   ar
     3    46    47   ar
     4    47    48   ar
     5    48    49   ar
     6    49    50   ar
     7    50    51   ar
     8    51    52   ar
     9    52    53   ar
    10    53    36    1
    11    36    37    1
    12    37    38    1
    13    38    39    1
    14    39    40    1
    15    40    41    1
    16    41    42    1
    17    41    43    1
    18    43    35    1
    19    35    34    1
    20    34     1    1
    21     1    27    1
    22    27    28   ar
    23    28    29   ar
    24    29    30   ar
    25    30    31   ar
    26    31    32    1
    27    31    33   ar
    28     1     2    1
    29     2     3    1
    30     3     4    1
    31     4     5   am
    32     5     6    2
    33     5     9    1
    34     9    10   ar
    35    10    11   ar
    36    11    17    1
    37    17    18    2
    38    17    19    2
    39    17    20    1
    40    20    22    1
    41    22    23    1
    42    23    24    1
    43    23    25    1
    44    23    26    1
    45    11    12   ar
    46    12    13    1
    47    12    14   ar
    48    14    15   ar
    49    15    16    1
    50     4     7    1
    51     7     8    1
    52    53    45   ar
    53    42    36    1
    54     8     1    1
    55    52    47   ar
    56    43    38    1
    57    33    27   ar
    58    15     9   ar
    59    20    21    1
@<TRIPOS>MOLECULE
*****
 53 59 0 0 0
SMALL
GASTEIGER

@<TRIPOS>ATOM
      1 C         142.2172  141.3378  160.6124 C.3     1  UNL1        0.0236
      2 C         141.0755  141.4521  161.5785 C.3     1  UNL1        0.0257
      3 C         141.1005  140.6794  162.8639 C.3     1  UNL1        0.0940
      4 N         142.2672  139.7923  163.1832 N.am    1  UNL1       -0.2760
      5 C         142.2921  139.0196  164.4686 C.2     1  UNL1        0.2499
      6 O         143.4588  138.1325  164.7879 O.2     1  UNL1       -0.2699
      7 C         143.4089  139.6780  162.2171 C.3     1  UNL1        0.0940
      8 C         143.3840  140.4507  160.9317 C.3     1  UNL1        0.0257
      9 C         141.1504  139.1339  165.4347 C.ar    1  UNL1        0.0656
     10 C         141.3030  139.9518  166.6828 C.ar    1  UNL1        0.0276
     11 C         140.1611  140.0661  167.6488 C.ar    1  UNL1        0.1494
     12 C         138.8667  139.3626  167.3667 C.ar    1  UNL1        0.1594
     13 F         137.7250  139.4770  168.3328 F       1  UNL1       -0.2027
     14 C         138.7142  138.5447  166.1186 C.ar    1  UNL1        0.0426
     15 C         139.8560  138.4304  165.1526 C.ar    1  UNL1        0.0643
     16 CL        139.7034  137.6125  163.9045 Cl      1  UNL1       -0.0820
     17 S         140.3137  140.8840  168.8969 S.O2    1  UNL1        0.0626
     18 O         140.2155  142.1414  168.0849 O.2     1  UNL1       -0.1529
     19 O         140.4120  139.6266  169.7089 O.2     1  UNL1       -0.1529
     20 N         140.4663  141.7020  170.1450 N.3     1  UNL1       -0.1706
     21 H         139.7640  141.3669  170.8044 H       1  UNL1        0.1491
     22 C         141.7756  141.7163  170.8769 C.3     1  UNL1        0.1944
     23 C         143.0281  142.1341  170.1652 C.3     1  UNL1        0.4134
     24 F         144.2806  142.5519  169.4535 F       1  UNL1       -0.1684
     25 F         142.5458  143.5544  170.1501 F       1  UNL1       -0.1684
     26 F         143.5104  140.7138  170.1804 F       1  UNL1       -0.1684
     27 C         143.0549  141.5581  159.3876 C.ar    1  UNL1       -0.0204
     28 C         142.5917  141.0387  158.0589 C.ar    1  UNL1       -0.0041
     29 C         143.4294  141.2589  156.8341 C.ar    1  UNL1        0.0020
     30 C         144.7301  141.9987  156.9383 C.ar    1  UNL1        0.0296
     31 C         145.1933  142.5181  158.2671 C.ar    1  UNL1        0.1398
     32 F         146.4940  143.2578  158.3712 F       1  UNL1       -0.2042
     33 C         144.3556  142.2978  159.4918 C.ar    1  UNL1        0.0254
     34 C         141.3415  142.3013  159.8678 C.3     1  UNL1        0.0215
     35 C         141.1544  143.6975  160.3835 C.3     1  UNL1        0.0723
     36 C         141.1142  143.7258  160.5326 C.3     1  UNL1        0.0893
     37 C         142.5729  143.9512  160.8003 C.3     1  UNL1        0.0386
     38 C         143.0354  144.3087  162.1817 C.3     1  UNL1        0.0594
     39 C         143.0373  144.6322  163.6464 C.3     1  UNL1        0.0174
     40 C         141.6201  144.5784  164.1348 C.3     1  UNL1        0.0174
     41 C         140.7422  144.2217  162.9720 C.3     1  UNL1        0.0594
     42 C         140.1182  143.8580  161.6462 C.3     1  UNL1        0.0386
     43 N         141.6169  144.0550  161.7648 N.3     1  UNL1       -0.2751
     44 C         142.2414  144.9722  158.1095 C.3     1  UNL1        0.0718
     45 C         141.1691  143.9512  157.8696 C.ar    1  UNL1        0.1207
     46 N         140.4277  143.3081  156.7353 N.ar    1  UNL1       -0.2309
     47 C         139.4521  142.3276  157.3157 C.ar    1  UNL1        0.0983
     48 C         138.4557  141.4058  156.6776 C.ar    1  UNL1        0.0206
     49 C         137.5976  140.5211  157.5325 C.ar    1  UNL1        0.0016
     50 C         137.7361  140.5583  159.0257 C.ar    1  UNL1        0.0016
     51 C         138.7325  141.4801  159.6638 C.ar    1  UNL1        0.0188
     52 C         139.5906  142.3647  158.8089 C.ar    1  UNL1        0.0785
     53 N         140.6517  143.3682  159.1512 N.ar    1  UNL1       -0.3167
@<TRIPOS>BOND
     1    44    45    1
     2    45    46   ar
     3    46    47   ar
     4    47    48   ar
     5    48    49   ar
     6    49    50   ar
     7    50    51   ar
     8    51    52   ar
     9    52    53   ar
    10    53    36    1
    11    36    37    1
    12    37    38    1
    13    38    39    1
    14    39    40    1
    15    40    41    1
    16    41    42    1
    17    41    43    1
    18    43    35    1
    19    35    34    1
    20    34     1    1
    21     1    27    1
    22    27    28   ar
    23    28    29   ar
    24    29    30   ar
    25    30    31   ar
    26    31    32    1
    27    31    33   ar
    28     1     2    1
    29     2     3    1
    30     3     4    1
    31     4     5   am
    32     5     6    2
    33     5     9    1
    34     9    10   ar
    35    10    11   ar
    36    11    17    1
    37    17    18    2
    38    17    19    2
    39    17    20    1
    40    20    22    1
    41    22    23    1
    42    23    24    1
    43    23    25    1
    44    23    26    1
    45    11    12   ar
    46    12    13    1
    47    12    14   ar
    48    14    15   ar
    49    15    16    1
    50     4     7    1
    51     7     8    1
    52    53    45   ar
    53    42    36    1
    54     8     1    1
    55    52    47   ar
    56    43    38    1
    57    33    27   ar
    58    15     9   ar
    59    20    21    1
