@<TRIPOS>MOLECULE
*****
 38 42 0 0 0
SMALL
GASTEIGER

@<TRIPOS>ATOM
      1 C         144.4900  142.7807  160.8622 C.3     1  UNL1        0.0553
      2 C         143.5680  143.0508  162.0141 C.ar    1  UNL1        0.0935
      3 N         143.5319  142.2965  163.3102 N.ar    1  UNL1       -0.1727
      4 N         142.4616  142.9021  164.1693 N.ar    1  UNL1       -0.2558
      5 C         141.8363  144.0306  163.4042 C.ar    1  UNL1        0.0704
      6 C         140.7228  144.9124  163.8863 C.3     1  UNL1        0.0531
      7 C         142.5200  144.1225  162.0722 C.ar    1  UNL1        0.0792
      8 C         142.0832  142.4573  165.5509 C.3     1  UNL1        0.1083
      9 C         143.1245  142.3893  166.6284 C.3     1  UNL1        0.0459
     10 C         142.7461  141.9444  168.0102 C.3     1  UNL1        0.0954
     11 N         141.3264  141.5677  168.3142 N.am    1  UNL1       -0.2783
     12 C         140.9480  141.1228  169.6959 C.2     1  UNL1        0.2397
     13 O         139.5282  140.7461  170.0000 O.2     1  UNL1       -0.2734
     14 C         140.2851  141.6357  167.2367 C.3     1  UNL1        0.0954
     15 C         140.6636  142.0806  165.8550 C.3     1  UNL1        0.0459
     16 C         141.9893  141.0548  170.7734 C.3     1  UNL1        0.1286
     17 C         142.9308  139.8887  170.8339 C.3     1  UNL1        0.0267
     18 N         142.0890  142.1528  171.7904 N.3     1  UNL1       -0.3150
     19 H         142.8456  141.9449  172.4422 H       1  UNL1        0.1192
     20 H         141.2094  142.2234  172.3020 H       1  UNL1        0.1192
     21 N         142.2103  145.1123  160.9885 N.pl3   1  UNL1       -0.2806
     22 H         142.5880  146.0206  161.0288 H       1  UNL1        0.1551
     23 C         141.3251  144.7183  159.8435 C.ar    1  UNL1        0.2208
     24 N         140.5962  143.4077  159.8754 N.ar    1  UNL1       -0.2111
     25 C         139.7110  143.0137  158.7304 C.ar    1  UNL1        0.1147
     26 C         139.5546  143.9303  157.5534 C.ar    1  UNL1        0.0946
     27 CL        138.6694  143.5364  156.4083 Cl      1  UNL1       -0.0790
     28 C         140.2835  145.2410  157.5214 C.ar    1  UNL1        0.0992
     29 N         141.1687  145.6349  158.6665 N.ar    1  UNL1       -0.2126
     30 C         140.1271  146.1577  156.3444 C.ar    1  UNL1        0.0572
     31 C         139.1284  147.2699  156.2197 C.ar    1  UNL1        0.1235
     32 N         139.3261  147.9226  154.8837 N.ar    1  UNL1       -0.1634
     33 N         140.4469  147.2138  154.1827 N.ar    1  UNL1       -0.2281
     34 C         141.0806  147.4207  152.8391 C.ar    1  UNL1        0.1004
     35 C         142.2095  146.5368  152.3982 C.ar    1  UNL1        0.0207
     36 C         142.7045  145.4460  153.3010 C.ar    1  UNL1        0.0031
     37 C         142.0708  145.2391  154.6447 C.ar    1  UNL1        0.0193
     38 C         140.9420  146.1230  155.0855 C.ar    1  UNL1        0.0858
@<TRIPOS>BOND
     1     1     2    1
     2     2     3   ar
     3     3     4   ar
     4     4     8    1
     5     8     9    1
     6     9    10    1
     7    10    11    1
     8    11    12   am
     9    12    13    2
    10    12    16    1
    11    16    17    1
    12    16    18    1
    13    11    14    1
    14    14    15    1
    15     4     5   ar
    16     5     6    1
    17     5     7   ar
    18     7    21    1
    19    21    23    1
    20    23    24   ar
    21    24    25   ar
    22    25    26   ar
    23    26    27    1
    24    26    28   ar
    25    28    30    1
    26    30    31   ar
    27    31    32   ar
    28    32    33   ar
    29    33    34   ar
    30    34    35   ar
    31    35    36   ar
    32    36    37   ar
    33    37    38   ar
    34    28    29   ar
    35     7     2   ar
    36    29    23   ar
    37    15     8    1
    38    38    30   ar
    39    38    33   ar
    40    18    19    1
    41    18    20    1
    42    21    22    1
@<TRIPOS>MOLECULE
*****
 38 42 0 0 0
SMALL
GASTEIGER

@<TRIPOS>ATOM
      1 C         140.8104  145.5365  162.5669 C.3     1  UNL1        0.0553
      2 C         140.7775  144.7023  161.3207 C.ar    1  UNL1        0.0935
      3 N         139.5925  144.5058  160.4223 N.ar    1  UNL1       -0.1727
      4 N         140.0064  143.6002  159.3004 N.ar    1  UNL1       -0.2558
      5 C         141.4473  143.2370  159.5055 C.ar    1  UNL1        0.0704
      6 C         142.2675  142.3487  158.6179 C.3     1  UNL1        0.0531
      7 C         141.9238  143.9181  160.7541 C.ar    1  UNL1        0.0792
      8 C         139.1330  143.1388  158.1716 C.3     1  UNL1        0.1083
      9 C         138.1756  142.0031  158.3801 C.3     1  UNL1        0.0459
     10 C         137.3020  141.5416  157.2513 C.3     1  UNL1        0.0954
     11 N         137.3860  142.2161  155.9141 N.am    1  UNL1       -0.2783
     12 C         136.5124  141.7546  154.7853 C.2     1  UNL1        0.2397
     13 O         136.5963  142.4290  153.4481 O.2     1  UNL1       -0.2734
     14 C         138.3434  143.3518  155.7056 C.3     1  UNL1        0.0954
     15 C         139.2168  143.8131  156.8345 C.3     1  UNL1        0.0459
     16 C         135.5550  140.6189  154.9938 C.3     1  UNL1        0.1286
     17 C         134.1114  140.8995  155.2891 C.3     1  UNL1        0.0267
     18 N         136.0413  139.2025  154.9070 N.3     1  UNL1       -0.3150
     19 H         135.2628  138.5649  155.0738 H       1  UNL1        0.1192
     20 H         136.7642  139.0475  155.6096 H       1  UNL1        0.1192
     21 N         143.3043  143.8305  161.3343 N.pl3   1  UNL1       -0.2806
     22 H         143.9554  144.5495  161.1661 H       1  UNL1        0.1551
     23 C         143.6926  142.6475  162.1708 C.ar    1  UNL1        0.2208
     24 N         145.0517  142.5898  162.8029 N.ar    1  UNL1       -0.2111
     25 C         145.4401  141.4068  163.6394 C.ar    1  UNL1        0.1147
     26 C         144.4694  140.2815  163.8437 C.ar    1  UNL1        0.0946
     27 CL        144.8578  139.0985  164.6801 Cl      1  UNL1       -0.0790
     28 C         143.1103  140.3393  163.2114 C.ar    1  UNL1        0.0992
     29 N         142.7220  141.5223  162.3750 N.ar    1  UNL1       -0.2126
     30 C         142.1396  139.2141  163.4157 C.ar    1  UNL1        0.0572
     31 C         142.1863  137.8758  162.7398 C.ar    1  UNL1        0.1235
     32 N         141.0274  137.0643  163.2381 N.ar    1  UNL1       -0.1634
     33 N         140.2645  137.9010  164.2220 N.ar    1  UNL1       -0.2281
     34 C         139.0327  137.6247  165.0321 C.ar    1  UNL1        0.1004
     35 C         138.4884  138.6770  165.9519 C.ar    1  UNL1        0.0207
     36 C         139.1758  140.0057  166.0617 C.ar    1  UNL1        0.0031
     37 C         140.4076  140.2820  165.2516 C.ar    1  UNL1        0.0193
     38 C         140.9519  139.2297  164.3317 C.ar    1  UNL1        0.0858
@<TRIPOS>BOND
     1     1     2    1
     2     2     3   ar
     3     3     4   ar
     4     4     8    1
     5     8     9    1
     6     9    10    1
     7    10    11    1
     8    11    12   am
     9    12    13    2
    10    12    16    1
    11    16    17    1
    12    16    18    1
    13    11    14    1
    14    14    15    1
    15     4     5   ar
    16     5     6    1
    17     5     7   ar
    18     7    21    1
    19    21    23    1
    20    23    24   ar
    21    24    25   ar
    22    25    26   ar
    23    26    27    1
    24    26    28   ar
    25    28    30    1
    26    30    31   ar
    27    31    32   ar
    28    32    33   ar
    29    33    34   ar
    30    34    35   ar
    31    35    36   ar
    32    36    37   ar
    33    37    38   ar
    34    28    29   ar
    35     7     2   ar
    36    29    23   ar
    37    15     8    1
    38    38    30   ar
    39    38    33   ar
    40    18    19    1
    41    18    20    1
    42    21    22    1
@<TRIPOS>MOLECULE
*****
 38 42 0 0 0
SMALL
GASTEIGER

@<TRIPOS>ATOM
      1 C         144.2541  142.8627  160.6167 C.3     1  UNL1        0.0553
      2 C         143.2263  142.9845  161.7024 C.ar    1  UNL1        0.0935
      3 N         143.1153  142.1071  162.9140 N.ar    1  UNL1       -0.1727
      4 N         141.9494  142.5855  163.7276 N.ar    1  UNL1       -0.2558
      5 C         141.3397  143.7585  163.0188 C.ar    1  UNL1        0.0704
      6 C         140.1499  144.5466  163.4805 C.3     1  UNL1        0.0531
      7 C         142.1289  144.0052  161.7671 C.ar    1  UNL1        0.0792
      8 C         141.4762  141.9947  165.0225 C.3     1  UNL1        0.1083
      9 C         142.3579  142.0422  166.2351 C.3     1  UNL1        0.0459
     10 C         141.8847  141.4513  167.5301 C.3     1  UNL1        0.0954
     11 N         140.5298  140.8129  167.6124 N.am    1  UNL1       -0.2783
     12 C         140.0566  140.2220  168.9075 C.2     1  UNL1        0.2397
     13 O         138.7018  139.5836  168.9899 O.2     1  UNL1       -0.2734
     14 C         139.6481  140.7654  166.3998 C.3     1  UNL1        0.0954
     15 C         140.1214  141.3563  165.1049 C.3     1  UNL1        0.0459
     16 C         140.9383  140.2696  170.1200 C.3     1  UNL1        0.1286
     17 C         140.8494  141.4295  171.0669 C.3     1  UNL1        0.0267
     18 N         141.9089  139.1572  170.3857 N.3     1  UNL1       -0.3150
     19 H         142.4224  139.3520  171.2453 H       1  UNL1        0.1192
     20 H         142.5641  139.0845  169.6074 H       1  UNL1        0.1192
     21 N         141.8667  145.0830  160.7575 N.pl3   1  UNL1       -0.2806
     22 H         142.2425  145.9833  160.8898 H       1  UNL1        0.1551
     23 C         141.0320  144.7893  159.5463 C.ar    1  UNL1        0.2208
     24 N         140.1566  143.5717  159.5161 N.ar    1  UNL1       -0.2111
     25 C         139.3219  143.2780  158.3049 C.ar    1  UNL1        0.1147
     26 C         139.3626  144.2019  157.1239 C.ar    1  UNL1        0.0946
     27 CL        138.5279  143.9082  155.9127 Cl      1  UNL1       -0.0790
     28 C         140.2381  145.4196  157.1542 C.ar    1  UNL1        0.0992
     29 N         141.0728  145.7133  158.3653 N.ar    1  UNL1       -0.2126
     30 C         140.2789  146.3436  155.9732 C.ar    1  UNL1        0.0572
     31 C         140.9681  146.0763  154.6680 C.ar    1  UNL1        0.1235
     32 N         140.7527  147.2645  153.7783 N.ar    1  UNL1       -0.1634
     33 N         139.9304  148.2662  154.5336 N.ar    1  UNL1       -0.2281
     34 C         139.4104  149.6230  154.1613 C.ar    1  UNL1        0.1004
     35 C         138.5976  150.4107  155.1457 C.ar    1  UNL1        0.0207
     36 C         138.3048  149.8415  156.5022 C.ar    1  UNL1        0.0031
     37 C         138.8247  148.4846  156.8745 C.ar    1  UNL1        0.0193
     38 C         139.6375  147.6970  155.8901 C.ar    1  UNL1        0.0858
@<TRIPOS>BOND
     1     1     2    1
     2     2     3   ar
     3     3     4   ar
     4     4     8    1
     5     8     9    1
     6     9    10    1
     7    10    11    1
     8    11    12   am
     9    12    13    2
    10    12    16    1
    11    16    17    1
    12    16    18    1
    13    11    14    1
    14    14    15    1
    15     4     5   ar
    16     5     6    1
    17     5     7   ar
    18     7    21    1
    19    21    23    1
    20    23    24   ar
    21    24    25   ar
    22    25    26   ar
    23    26    27    1
    24    26    28   ar
    25    28    30    1
    26    30    31   ar
    27    31    32   ar
    28    32    33   ar
    29    33    34   ar
    30    34    35   ar
    31    35    36   ar
    32    36    37   ar
    33    37    38   ar
    34    28    29   ar
    35     7     2   ar
    36    29    23   ar
    37    15     8    1
    38    38    30   ar
    39    38    33   ar
    40    18    19    1
    41    18    20    1
    42    21    22    1
@<TRIPOS>MOLECULE
*****
 38 42 0 0 0
SMALL
GASTEIGER

@<TRIPOS>ATOM
      1 C         136.9508  139.9095  160.4268 C.3     1  UNL1        0.0553
      2 C         137.7533  139.5178  161.6321 C.ar    1  UNL1        0.0935
      3 N         137.5517  140.0261  163.0288 N.ar    1  UNL1       -0.1727
      4 N         138.5721  139.3714  163.9122 N.ar    1  UNL1       -0.2558
      5 C         139.4043  138.4585  163.0614 C.ar    1  UNL1        0.0704
      6 C         140.5426  137.6049  163.5363 C.3     1  UNL1        0.0531
      7 C         138.8983  138.5489  161.6522 C.ar    1  UNL1        0.0792
      8 C         138.7321  139.5911  165.3874 C.3     1  UNL1        0.1083
      9 C         139.7463  140.5735  165.8936 C.3     1  UNL1        0.0459
     10 C         139.9064  140.7933  167.3688 C.3     1  UNL1        0.0954
     11 N         139.0522  140.0306  168.3377 N.am    1  UNL1       -0.2783
     12 C         139.2123  140.2503  169.8129 C.2     1  UNL1        0.2397
     13 O         138.3582  139.4877  170.7818 O.2     1  UNL1       -0.2734
     14 C         138.0380  139.0482  167.8314 C.3     1  UNL1        0.0954
     15 C         137.8780  138.8285  166.3562 C.3     1  UNL1        0.0459
     16 C         140.2266  141.2327  170.3191 C.3     1  UNL1        0.1286
     17 C         139.8765  142.6879  170.4187 C.3     1  UNL1        0.0267
     18 N         141.5908  140.7600  170.7257 N.3     1  UNL1       -0.3150
     19 H         142.1459  141.5551  171.0421 H       1  UNL1        0.1192
     20 H         142.0501  140.3206  169.9280 H       1  UNL1        0.1192
     21 N         139.4417  137.8016  160.4706 N.pl3   1  UNL1       -0.2806
     22 H         139.0396  136.9436  160.2034 H       1  UNL1        0.1551
     23 C         140.5977  138.3616  159.6960 C.ar    1  UNL1        0.2208
     24 N         140.8143  137.9507  158.2697 N.ar    1  UNL1       -0.2111
     25 C         141.9704  138.5106  157.4952 C.ar    1  UNL1        0.1147
     26 C         142.9098  139.4816  158.1469 C.ar    1  UNL1        0.0946
     27 CL        144.0659  140.0415  157.3723 Cl      1  UNL1       -0.0790
     28 C         142.6933  139.8925  159.5732 C.ar    1  UNL1        0.0992
     29 N         141.5372  139.3325  160.3477 N.ar    1  UNL1       -0.2126
     30 C         143.6327  140.8634  160.2249 C.ar    1  UNL1        0.0572
     31 C         144.1369  142.1416  159.6232 C.ar    1  UNL1        0.1235
     32 N         145.0487  142.7947  160.6192 N.ar    1  UNL1       -0.1634
     33 N         145.1082  141.9202  161.8364 N.ar    1  UNL1       -0.2281
     34 C         145.8461  142.0565  163.1352 C.ar    1  UNL1        0.1004
     35 C         145.7089  140.9992  164.1902 C.ar    1  UNL1        0.0207
     36 C         144.8337  139.8056  163.9466 C.ar    1  UNL1        0.0031
     37 C         144.0958  139.6693  162.6478 C.ar    1  UNL1        0.0193
     38 C         144.2330  140.7266  161.5927 C.ar    1  UNL1        0.0858
@<TRIPOS>BOND
     1     1     2    1
     2     2     3   ar
     3     3     4   ar
     4     4     8    1
     5     8     9    1
     6     9    10    1
     7    10    11    1
     8    11    12   am
     9    12    13    2
    10    12    16    1
    11    16    17    1
    12    16    18    1
    13    11    14    1
    14    14    15    1
    15     4     5   ar
    16     5     6    1
    17     5     7   ar
    18     7    21    1
    19    21    23    1
    20    23    24   ar
    21    24    25   ar
    22    25    26   ar
    23    26    27    1
    24    26    28   ar
    25    28    30    1
    26    30    31   ar
    27    31    32   ar
    28    32    33   ar
    29    33    34   ar
    30    34    35   ar
    31    35    36   ar
    32    36    37   ar
    33    37    38   ar
    34    28    29   ar
    35     7     2   ar
    36    29    23   ar
    37    15     8    1
    38    38    30   ar
    39    38    33   ar
    40    18    19    1
    41    18    20    1
    42    21    22    1
@<TRIPOS>MOLECULE
*****
 38 42 0 0 0
SMALL
GASTEIGER

@<TRIPOS>ATOM
      1 C         138.6250  142.0813  160.4203 C.3     1  UNL1        0.0553
      2 C         139.0082  141.1174  161.5038 C.ar    1  UNL1        0.0935
      3 N         139.2664  141.4630  162.9404 N.ar    1  UNL1       -0.1727
      4 N         139.6183  140.1978  163.6655 N.ar    1  UNL1       -0.2558
      5 C         139.5776  139.0704  162.6771 C.ar    1  UNL1        0.0704
      6 C         139.8636  137.6280  162.9726 C.3     1  UNL1        0.0531
      7 C         139.2005  139.6387  161.3410 C.ar    1  UNL1        0.0792
      8 C         139.9523  140.0807  165.1232 C.3     1  UNL1        0.1083
      9 C         141.3857  140.0474  165.5638 C.3     1  UNL1        0.0459
     10 C         141.7198  139.9303  167.0215 C.3     1  UNL1        0.0954
     11 N         140.6203  139.8466  168.0384 N.am    1  UNL1       -0.2783
     12 C         140.9544  139.7295  169.4961 C.2     1  UNL1        0.2397
     13 O         139.8549  139.6457  170.5131 O.2     1  UNL1       -0.2734
     14 C         139.1869  139.8799  167.5978 C.3     1  UNL1        0.0954
     15 C         138.8530  139.9970  166.1401 C.3     1  UNL1        0.0459
     16 C         142.3878  139.6962  169.9368 C.3     1  UNL1        0.1286
     17 C         143.1770  140.9691  170.0187 C.3     1  UNL1        0.0267
     18 N         143.0320  138.3899  170.2954 N.3     1  UNL1       -0.3150
     19 H         144.0007  138.5527  170.5702 H       1  UNL1        0.1192
     20 H         143.0076  137.7660  169.4889 H       1  UNL1        0.1192
     21 N         139.0433  138.8643  160.0660 N.pl3   1  UNL1       -0.2806
     22 H         138.1965  138.4007  159.8729 H       1  UNL1        0.1551
     23 C         140.1762  138.7962  159.0853 C.ar    1  UNL1        0.2208
     24 N         141.2712  139.8202  159.1320 N.ar    1  UNL1       -0.2111
     25 C         142.4041  139.7521  158.1513 C.ar    1  UNL1        0.1147
     26 C         142.4420  138.6599  157.1238 C.ar    1  UNL1        0.0946
     27 CL        143.5749  138.5918  156.1431 Cl      1  UNL1       -0.0790
     28 C         141.3469  137.6358  157.0771 C.ar    1  UNL1        0.0992
     29 N         140.2141  137.7040  158.0578 N.ar    1  UNL1       -0.2126
     30 C         141.3848  136.5436  156.0496 C.ar    1  UNL1        0.0572
     31 C         140.5687  136.4872  154.7923 C.ar    1  UNL1        0.1235
     32 N         140.9250  135.2248  154.0647 N.ar    1  UNL1       -0.1634
     33 N         141.9612  134.5010  154.8724 N.ar    1  UNL1       -0.2281
     34 C         142.6828  133.2050  154.6492 C.ar    1  UNL1        0.1004
     35 C         143.6885  132.7241  155.6528 C.ar    1  UNL1        0.0207
     36 C         143.9726  133.5392  156.8796 C.ar    1  UNL1        0.0031
     37 C         143.2511  134.8352  157.1027 C.ar    1  UNL1        0.0193
     38 C         142.2454  135.3160  156.0991 C.ar    1  UNL1        0.0858
@<TRIPOS>BOND
     1     1     2    1
     2     2     3   ar
     3     3     4   ar
     4     4     8    1
     5     8     9    1
     6     9    10    1
     7    10    11    1
     8    11    12   am
     9    12    13    2
    10    12    16    1
    11    16    17    1
    12    16    18    1
    13    11    14    1
    14    14    15    1
    15     4     5   ar
    16     5     6    1
    17     5     7   ar
    18     7    21    1
    19    21    23    1
    20    23    24   ar
    21    24    25   ar
    22    25    26   ar
    23    26    27    1
    24    26    28   ar
    25    28    30    1
    26    30    31   ar
    27    31    32   ar
    28    32    33   ar
    29    33    34   ar
    30    34    35   ar
    31    35    36   ar
    32    36    37   ar
    33    37    38   ar
    34    28    29   ar
    35     7     2   ar
    36    29    23   ar
    37    15     8    1
    38    38    30   ar
    39    38    33   ar
    40    18    19    1
    41    18    20    1
    42    21    22    1
@<TRIPOS>MOLECULE
*****
 38 42 0 0 0
SMALL
GASTEIGER

@<TRIPOS>ATOM
      1 C         145.5907  141.8263  163.3349 C.3     1  UNL1        0.0553
      2 C         144.7403  141.7190  162.1040 C.ar    1  UNL1        0.0935
      3 N         144.7159  140.5641  161.1471 N.ar    1  UNL1       -0.1727
      4 N         143.7254  140.8791  160.0654 N.ar    1  UNL1       -0.2558
      5 C         143.1377  142.2287  160.3538 C.ar    1  UNL1        0.0704
      6 C         142.1042  142.9351  159.5275 C.3     1  UNL1        0.0531
      7 C         143.7648  142.7478  161.6137 C.ar    1  UNL1        0.0792
      8 C         143.3829  139.9991  158.9001 C.3     1  UNL1        0.1083
      9 C         142.4221  138.8608  159.0768 C.3     1  UNL1        0.0459
     10 C         142.0795  137.9806  157.9113 C.3     1  UNL1        0.0954
     11 N         142.6978  138.2389  156.5693 N.am    1  UNL1       -0.2783
     12 C         142.3552  137.3588  155.4039 C.2     1  UNL1        0.2397
     13 O         142.9734  137.6171  154.0618 O.2     1  UNL1       -0.2734
     14 C         143.6585  139.3773  156.3926 C.3     1  UNL1        0.0954
     15 C         144.0010  140.2573  157.5581 C.3     1  UNL1        0.0459
     16 C         141.3945  136.2205  155.5806 C.3     1  UNL1        0.1286
     17 C         139.9438  136.4048  155.2465 C.3     1  UNL1        0.0267
     18 N         141.8844  134.8979  156.0913 N.3     1  UNL1       -0.3150
     19 H         141.1028  134.2450  156.1489 H       1  UNL1        0.1192
     20 H         142.2931  135.0215  157.0177 H       1  UNL1        0.1192
     21 N         143.4687  144.0645  162.2684 N.pl3   1  UNL1       -0.2806
     22 H         144.1011  144.8133  162.1763 H       1  UNL1        0.1551
     23 C         142.2090  144.2402  163.0636 C.ar    1  UNL1        0.2208
     24 N         141.2273  145.3099  162.6867 N.ar    1  UNL1       -0.2111
     25 C         139.9676  145.4857  163.4818 C.ar    1  UNL1        0.1147
     26 C         139.6897  144.5918  164.6539 C.ar    1  UNL1        0.0946
     27 CL        138.4300  144.7676  165.4490 Cl      1  UNL1       -0.0790
     28 C         140.6714  143.5221  165.0308 C.ar    1  UNL1        0.0992
     29 N         141.9310  143.3464  164.2356 N.ar    1  UNL1       -0.2126
     30 C         140.3934  142.6282  166.2029 C.ar    1  UNL1        0.0572
     31 C         140.8602  142.8500  167.6110 C.ar    1  UNL1        0.1235
     32 N         140.3551  141.7144  168.4509 N.ar    1  UNL1       -0.1634
     33 N         139.5762  140.7909  167.5619 N.ar    1  UNL1       -0.2281
     34 C         138.8485  139.5086  167.8380 C.ar    1  UNL1        0.1004
     35 C         138.1445  138.7912  166.7246 C.ar    1  UNL1        0.0207
     36 C         138.1682  139.3559  165.3352 C.ar    1  UNL1        0.0031
     37 C         138.8959  140.6382  165.0591 C.ar    1  UNL1        0.0193
     38 C         139.5999  141.3556  166.1724 C.ar    1  UNL1        0.0858
@<TRIPOS>BOND
     1     1     2    1
     2     2     3   ar
     3     3     4   ar
     4     4     8    1
     5     8     9    1
     6     9    10    1
     7    10    11    1
     8    11    12   am
     9    12    13    2
    10    12    16    1
    11    16    17    1
    12    16    18    1
    13    11    14    1
    14    14    15    1
    15     4     5   ar
    16     5     6    1
    17     5     7   ar
    18     7    21    1
    19    21    23    1
    20    23    24   ar
    21    24    25   ar
    22    25    26   ar
    23    26    27    1
    24    26    28   ar
    25    28    30    1
    26    30    31   ar
    27    31    32   ar
    28    32    33   ar
    29    33    34   ar
    30    34    35   ar
    31    35    36   ar
    32    36    37   ar
    33    37    38   ar
    34    28    29   ar
    35     7     2   ar
    36    29    23   ar
    37    15     8    1
    38    38    30   ar
    39    38    33   ar
    40    18    19    1
    41    18    20    1
    42    21    22    1
@<TRIPOS>MOLECULE
*****
 38 42 0 0 0
SMALL
GASTEIGER

@<TRIPOS>ATOM
      1 C         142.8793  137.6115  161.1511 C.3     1  UNL1        0.0553
      2 C         141.7715  138.0747  162.0500 C.ar    1  UNL1        0.0935
      3 N         141.8931  138.3807  163.5134 N.ar    1  UNL1       -0.1727
      4 N         140.5442  138.8085  164.0112 N.ar    1  UNL1       -0.2558
      5 C         139.5890  138.7669  162.8555 C.ar    1  UNL1        0.0704
      6 C         138.1314  139.1172  162.9033 C.3     1  UNL1        0.0531
      7 C         140.3474  138.3134  161.6433 C.ar    1  UNL1        0.0792
      8 C         140.2094  139.2078  165.4178 C.3     1  UNL1        0.1083
      9 C         141.1566  140.0701  166.1982 C.3     1  UNL1        0.0459
     10 C         140.8218  140.4694  167.6049 C.3     1  UNL1        0.0954
     11 N         139.5398  140.0063  168.2309 N.am    1  UNL1       -0.2783
     12 C         139.2050  140.4056  169.6376 C.2     1  UNL1        0.2397
     13 O         137.9230  139.9425  170.2637 O.2     1  UNL1       -0.2734
     14 C         138.5926  139.1440  167.4505 C.3     1  UNL1        0.0954
     15 C         138.9275  138.7447  166.0439 C.3     1  UNL1        0.0459
     16 C         140.1522  141.2680  170.4180 C.3     1  UNL1        0.1286
     17 C         140.1750  142.7509  170.1932 C.3     1  UNL1        0.0267
     18 N         141.0766  140.6475  171.4233 N.3     1  UNL1       -0.3150
     19 H         141.6452  141.3749  171.8568 H       1  UNL1        0.1192
     20 H         141.6841  139.9742  170.9563 H       1  UNL1        0.1192
     21 N         139.7814  138.1306  160.2663 N.pl3   1  UNL1       -0.2806
     22 H         139.6170  137.2246  159.9180 H       1  UNL1        0.1551
     23 C         139.4658  139.3282  159.4201 C.ar    1  UNL1        0.2208
     24 N         138.9028  139.1453  158.0418 N.ar    1  UNL1       -0.2111
     25 C         138.5872  140.3429  157.1955 C.ar    1  UNL1        0.1147
     26 C         138.8347  141.7234  157.7275 C.ar    1  UNL1        0.0946
     27 CL        138.5191  142.9210  156.8812 Cl      1  UNL1       -0.0790
     28 C         139.3977  141.9063  159.1058 C.ar    1  UNL1        0.0992
     29 N         139.7132  140.7087  159.9520 N.ar    1  UNL1       -0.2126
     30 C         139.6451  143.2868  159.6378 C.ar    1  UNL1        0.0572
     31 C         140.0298  144.4884  158.8266 C.ar    1  UNL1        0.1235
     32 N         140.1737  145.6523  159.7618 N.ar    1  UNL1       -0.1634
     33 N         139.8780  145.1700  161.1510 N.ar    1  UNL1       -0.2281
     34 C         139.8640  145.8732  162.4759 C.ar    1  UNL1        0.1004
     35 C         139.5233  145.1144  163.7241 C.ar    1  UNL1        0.0207
     36 C         139.1966  143.6524  163.6474 C.ar    1  UNL1        0.0031
     37 C         139.2106  142.9492  162.3226 C.ar    1  UNL1        0.0193
     38 C         139.5513  143.7080  161.0744 C.ar    1  UNL1        0.0858
@<TRIPOS>BOND
     1     1     2    1
     2     2     3   ar
     3     3     4   ar
     4     4     8    1
     5     8     9    1
     6     9    10    1
     7    10    11    1
     8    11    12   am
     9    12    13    2
    10    12    16    1
    11    16    17    1
    12    16    18    1
    13    11    14    1
    14    14    15    1
    15     4     5   ar
    16     5     6    1
    17     5     7   ar
    18     7    21    1
    19    21    23    1
    20    23    24   ar
    21    24    25   ar
    22    25    26   ar
    23    26    27    1
    24    26    28   ar
    25    28    30    1
    26    30    31   ar
    27    31    32   ar
    28    32    33   ar
    29    33    34   ar
    30    34    35   ar
    31    35    36   ar
    32    36    37   ar
    33    37    38   ar
    34    28    29   ar
    35     7     2   ar
    36    29    23   ar
    37    15     8    1
    38    38    30   ar
    39    38    33   ar
    40    18    19    1
    41    18    20    1
    42    21    22    1
@<TRIPOS>MOLECULE
*****
 38 42 0 0 0
SMALL
GASTEIGER

@<TRIPOS>ATOM
      1 C         137.5238  139.8427  160.3633 C.3     1  UNL1        0.0553
      2 C         138.3021  139.5402  161.6093 C.ar    1  UNL1        0.0935
      3 N         137.9416  139.9703  163.0004 N.ar    1  UNL1       -0.1727
      4 N         138.9944  139.4503  163.9339 N.ar    1  UNL1       -0.2558
      5 C         140.0055  138.6988  163.1198 C.ar    1  UNL1        0.0704
      6 C         141.2295  138.0123  163.6493 C.3     1  UNL1        0.0531
      7 C         139.5778  138.7543  161.6831 C.ar    1  UNL1        0.0792
      8 C         139.0298  139.6473  165.4205 C.3     1  UNL1        0.1083
      9 C         140.0652  140.5426  166.0339 C.3     1  UNL1        0.0459
     10 C         140.1006  140.7396  167.5206 C.3     1  UNL1        0.0954
     11 N         139.1006  140.0412  168.3936 N.am    1  UNL1       -0.2783
     12 C         139.1360  140.2382  169.8803 C.2     1  UNL1        0.2397
     13 O         138.1360  139.5398  170.7534 O.2     1  UNL1       -0.2734
     14 C         138.0652  139.1458  167.7802 C.3     1  UNL1        0.0954
     15 C         138.0299  138.9489  166.2936 C.3     1  UNL1        0.0459
     16 C         140.1714  141.1335  170.4938 C.3     1  UNL1        0.1286
     17 C         139.9733  142.6204  170.4918 C.3     1  UNL1        0.0267
     18 N         141.4049  140.5420  171.1092 N.3     1  UNL1       -0.3150
     19 H         141.9943  141.2897  171.4750 H       1  UNL1        0.1192
     20 H         141.9201  140.0181  170.4017 H       1  UNL1        0.1192
     21 N         140.2988  138.1331  160.5238 N.pl3   1  UNL1       -0.2806
     22 H         140.2138  137.1675  160.3514 H       1  UNL1        0.1551
     23 C         141.1495  138.9829  159.6270 C.ar    1  UNL1        0.2208
     24 N         142.1503  138.3404  158.7130 N.ar    1  UNL1       -0.2111
     25 C         143.0009  139.1902  157.8162 C.ar    1  UNL1        0.1147
     26 C         142.8508  140.6826  157.8336 C.ar    1  UNL1        0.0946
     27 CL        143.7014  141.5324  156.9368 Cl      1  UNL1       -0.0790
     28 C         141.8499  141.3252  158.7477 C.ar    1  UNL1        0.0992
     29 N         140.9993  140.4753  159.6444 N.ar    1  UNL1       -0.2126
     30 C         141.6998  142.8175  158.7650 C.ar    1  UNL1        0.0572
     31 C         142.3121  143.7537  159.7643 C.ar    1  UNL1        0.1235
     32 N         141.9017  145.1505  159.4029 N.ar    1  UNL1       -0.1634
     33 N         141.0357  145.0775  158.1803 N.ar    1  UNL1       -0.2281
     34 C         140.3447  146.1377  157.3751 C.ar    1  UNL1        0.1004
     35 C         139.5289  145.7561  156.1757 C.ar    1  UNL1        0.0207
     36 C         139.4041  144.3142  155.7814 C.ar    1  UNL1        0.0031
     37 C         140.0951  143.2540  156.5866 C.ar    1  UNL1        0.0193
     38 C         140.9109  143.6357  157.7861 C.ar    1  UNL1        0.0858
@<TRIPOS>BOND
     1     1     2    1
     2     2     3   ar
     3     3     4   ar
     4     4     8    1
     5     8     9    1
     6     9    10    1
     7    10    11    1
     8    11    12   am
     9    12    13    2
    10    12    16    1
    11    16    17    1
    12    16    18    1
    13    11    14    1
    14    14    15    1
    15     4     5   ar
    16     5     6    1
    17     5     7   ar
    18     7    21    1
    19    21    23    1
    20    23    24   ar
    21    24    25   ar
    22    25    26   ar
    23    26    27    1
    24    26    28   ar
    25    28    30    1
    26    30    31   ar
    27    31    32   ar
    28    32    33   ar
    29    33    34   ar
    30    34    35   ar
    31    35    36   ar
    32    36    37   ar
    33    37    38   ar
    34    28    29   ar
    35     7     2   ar
    36    29    23   ar
    37    15     8    1
    38    38    30   ar
    39    38    33   ar
    40    18    19    1
    41    18    20    1
    42    21    22    1
@<TRIPOS>MOLECULE
*****
 38 42 0 0 0
SMALL
GASTEIGER

@<TRIPOS>ATOM
      1 C         137.5348  142.7225  164.1978 C.3     1  UNL1        0.0553
      2 C         137.9806  142.3356  162.8188 C.ar    1  UNL1        0.0935
      3 N         138.1019  143.2561  161.6407 N.ar    1  UNL1       -0.1727
      4 N         138.5798  142.4497  160.4696 N.ar    1  UNL1       -0.2558
      5 C         138.7538  141.0308  160.9239 C.ar    1  UNL1        0.0704
      6 C         139.2168  139.8839  160.0754 C.3     1  UNL1        0.0531
      7 C         138.3835  140.9603  162.3758 C.ar    1  UNL1        0.0792
      8 C         138.8382  142.9707  159.0869 C.3     1  UNL1        0.1083
      9 C         139.9007  144.0054  158.8618 C.3     1  UNL1        0.0459
     10 C         140.1591  144.5265  157.4791 C.3     1  UNL1        0.0954
     11 N         139.3551  144.0127  156.3216 N.am    1  UNL1       -0.2783
     12 C         139.6136  144.5338  154.9389 C.2     1  UNL1        0.2397
     13 O         138.8096  144.0201  153.7814 O.2     1  UNL1       -0.2734
     14 C         138.2927  142.9781  156.5468 C.3     1  UNL1        0.0954
     15 C         138.0343  142.4571  157.9295 C.3     1  UNL1        0.0459
     16 C         140.6760  145.5685  154.7138 C.3     1  UNL1        0.1286
     17 C         140.3133  147.0238  154.6937 C.3     1  UNL1        0.0267
     18 N         142.1012  145.1478  154.5088 N.3     1  UNL1       -0.3150
     19 H         142.6832  145.9741  154.3715 H       1  UNL1        0.1192
     20 H         142.1636  144.5476  153.6864 H       1  UNL1        0.1192
     21 N         138.4112  139.7304  163.2341 N.pl3   1  UNL1       -0.2806
     22 H         137.6077  139.1670  163.3129 H       1  UNL1        0.1551
     23 C         139.6630  139.3589  163.9722 C.ar    1  UNL1        0.2208
     24 N         140.3625  138.0690  163.6608 N.ar    1  UNL1       -0.2111
     25 C         141.6143  137.6975  164.3989 C.ar    1  UNL1        0.1147
     26 C         142.1667  138.6158  165.4484 C.ar    1  UNL1        0.0946
     27 CL        143.4186  138.2443  166.1866 Cl      1  UNL1       -0.0790
     28 C         141.4672  139.9058  165.7598 C.ar    1  UNL1        0.0992
     29 N         140.2155  140.2772  165.0217 N.ar    1  UNL1       -0.2126
     30 C         142.0197  140.8242  166.8093 C.ar    1  UNL1        0.0572
     31 C         143.0518  141.8908  166.5928 C.ar    1  UNL1        0.1235
     32 N         143.3069  142.5630  167.9093 N.ar    1  UNL1       -0.1634
     33 N         142.4325  141.9117  168.9394 N.ar    1  UNL1       -0.2281
     34 C         142.2579  142.1584  170.4086 C.ar    1  UNL1        0.1004
     35 C         141.2878  141.3304  171.1980 C.ar    1  UNL1        0.0207
     36 C         140.4922  140.2557  170.5182 C.ar    1  UNL1        0.0031
     37 C         140.6668  140.0091  169.0490 C.ar    1  UNL1        0.0193
     38 C         141.6369  140.8370  168.2596 C.ar    1  UNL1        0.0858
@<TRIPOS>BOND
     1     1     2    1
     2     2     3   ar
     3     3     4   ar
     4     4     8    1
     5     8     9    1
     6     9    10    1
     7    10    11    1
     8    11    12   am
     9    12    13    2
    10    12    16    1
    11    16    17    1
    12    16    18    1
    13    11    14    1
    14    14    15    1
    15     4     5   ar
    16     5     6    1
    17     5     7   ar
    18     7    21    1
    19    21    23    1
    20    23    24   ar
    21    24    25   ar
    22    25    26   ar
    23    26    27    1
    24    26    28   ar
    25    28    30    1
    26    30    31   ar
    27    31    32   ar
    28    32    33   ar
    29    33    34   ar
    30    34    35   ar
    31    35    36   ar
    32    36    37   ar
    33    37    38   ar
    34    28    29   ar
    35     7     2   ar
    36    29    23   ar
    37    15     8    1
    38    38    30   ar
    39    38    33   ar
    40    18    19    1
    41    18    20    1
    42    21    22    1
