@<TRIPOS>MOLECULE
*****
 34 38 0 0 0
SMALL
GASTEIGER

@<TRIPOS>ATOM
      1 N         141.7282  138.0048  162.8983 N.3     1  UNL1       -0.2712
      2 C         140.3169  137.5098  163.0129 C.3     1  UNL1        0.0738
      3 C         139.7346  138.0593  164.2813 C.3     1  UNL1        0.0372
      4 C         138.5024  138.0930  165.1361 C.3     1  UNL1        0.0245
      5 C         138.7923  138.9484  166.3337 C.3     1  UNL1        0.0909
      6 N         140.2037  139.4434  166.2191 N.pl3   1  UNL1       -0.3077
      7 C         140.7860  138.8939  164.9506 C.3     1  UNL1        0.0901
      8 C         142.0181  138.8603  164.0958 C.3     1  UNL1        0.0921
      9 C         140.9088  140.3320  167.2005 C.ar    1  UNL1        0.0478
     10 C         140.4835  141.7617  167.3580 C.ar    1  UNL1        0.0145
     11 C         141.1887  142.6502  168.3395 C.ar    1  UNL1        0.0051
     12 C         142.3191  142.1090  169.1635 C.ar    1  UNL1        0.0715
     13 C         142.7445  140.6792  169.0060 C.ar    1  UNL1        0.0051
     14 C         142.0393  139.7906  168.0246 C.ar    1  UNL1        0.0145
     15 C         143.0243  142.9975  170.1450 C.3     1  UNL1        0.4186
     16 F         143.7294  143.8860  171.1264 F       1  UNL1       -0.1659
     17 F         144.2566  142.1505  170.0263 F       1  UNL1       -0.1659
     18 F         141.7920  143.8445  170.2636 F       1  UNL1       -0.1659
     19 C         142.6822  137.6983  161.7820 C.3     1  UNL1        0.0731
     20 C         143.9071  138.5423  161.5892 C.3     1  UNL1        0.0294
     21 C         144.0198  139.4380  160.3912 C.3     1  UNL1        0.0666
     22 S         143.9609  140.9273  160.5601 S.3     1  UNL1       -0.0756
     23 C         140.8082  141.7134  160.8642 C.3     1  UNL1        0.1340
     24 N         141.8640  141.8803  161.9165 N.ar    1  UNL1       -0.2872
     25 C         143.3131  141.5190  161.7768 C.ar    1  UNL1        0.1933
     26 N         144.0008  141.8533  163.0673 N.ar    1  UNL1       -0.1221
     27 N         142.9766  142.4212  164.0046 N.ar    1  UNL1       -0.1267
     28 C         141.6560  142.4379  163.2935 C.ar    1  UNL1        0.1846
     29 C         140.3558  142.9265  163.8598 C.ar    1  UNL1        0.1171
     30 C         140.2373  144.3363  164.3582 C.ar    1  UNL1        0.0223
     31 C         138.9370  144.8248  164.9245 C.ar    1  UNL1        0.0032
     32 C         137.7553  143.9034  164.9924 C.ar    1  UNL1        0.0207
     33 C         137.8737  142.4936  164.4940 C.ar    1  UNL1        0.0989
     34 N         139.1740  142.0051  163.9277 N.ar    1  UNL1       -0.2407
@<TRIPOS>BOND
     1    23    24    1
     2    24    25   ar
     3    25    22    1
     4    22    21    1
     5    21    20    1
     6    20    19    1
     7    19     1    1
     8     1     2    1
     9     2     3    1
    10     3     4    1
    11     4     5    1
    12     5     6    1
    13     6     9    1
    14     9    10   ar
    15    10    11   ar
    16    11    12   ar
    17    12    15    1
    18    15    16    1
    19    15    17    1
    20    15    18    1
    21    12    13   ar
    22    13    14   ar
    23     6     7    1
    24     7     8    1
    25    25    26   ar
    26    26    27   ar
    27    27    28   ar
    28    28    29    1
    29    29    30   ar
    30    30    31   ar
    31    31    32   ar
    32    32    33   ar
    33    33    34   ar
    34    28    24   ar
    35    34    29   ar
    36     8     1    1
    37     7     3    1
    38    14     9   ar
@<TRIPOS>MOLECULE
*****
 34 38 0 0 0
SMALL
GASTEIGER

@<TRIPOS>ATOM
      1 N         141.7021  144.3964  162.3316 N.3     1  UNL1       -0.2712
      2 C         143.0979  144.0184  161.9332 C.3     1  UNL1        0.0738
      3 C         143.6381  143.0801  162.9713 C.3     1  UNL1        0.0372
      4 C         144.8347  142.2666  163.3667 C.3     1  UNL1        0.0245
      5 C         144.5123  141.5618  164.6510 C.3     1  UNL1        0.0909
      6 N         143.1164  141.9399  165.0494 N.pl3   1  UNL1       -0.3077
      7 C         142.5762  142.8782  164.0113 C.3     1  UNL1        0.0901
      8 C         141.3796  143.6917  163.6159 C.3     1  UNL1        0.0921
      9 C         142.3886  141.4633  166.2713 C.ar    1  UNL1        0.0478
     10 C         141.4028  142.3630  166.9558 C.ar    1  UNL1        0.0145
     11 C         140.6750  141.8864  168.1777 C.ar    1  UNL1        0.0051
     12 C         140.9330  140.5100  168.7152 C.ar    1  UNL1        0.0715
     13 C         141.9188  139.6101  168.0307 C.ar    1  UNL1        0.0051
     14 C         142.6466  140.0868  166.8088 C.ar    1  UNL1        0.0145
     15 C         140.2052  140.0334  169.9371 C.3     1  UNL1        0.4186
     16 F         139.4774  139.5567  171.1591 F       1  UNL1       -0.1659
     17 F         141.4190  139.2591  170.3581 F       1  UNL1       -0.1659
     18 F         138.9914  140.8076  169.5162 F       1  UNL1       -0.1659
     19 C         140.7889  145.3174  161.5780 C.3     1  UNL1        0.0731
     20 C         140.8764  145.4024  160.0830 C.3     1  UNL1        0.0294
     21 C         139.9809  144.5537  159.2297 C.3     1  UNL1        0.0666
     22 S         139.9239  143.0706  159.4463 S.3     1  UNL1       -0.0756
     23 C         140.9214  140.6510  161.3957 C.3     1  UNL1        0.1340
     24 N         139.6268  141.3998  161.5115 N.ar    1  UNL1       -0.2872
     25 C         139.1683  142.5119  160.6155 C.ar    1  UNL1        0.1933
     26 N         137.8215  142.9673  161.0939 N.ar    1  UNL1       -0.1221
     27 N         137.4477  142.1366  162.2856 N.ar    1  UNL1       -0.1267
     28 C         138.5634  141.1678  162.5438 C.ar    1  UNL1        0.1846
     29 C         138.6079  140.1464  163.6414 C.ar    1  UNL1        0.1171
     30 C         138.4971  140.5790  165.0734 C.ar    1  UNL1        0.0223
     31 C         138.5416  139.5576  166.1710 C.ar    1  UNL1        0.0032
     32 C         138.6969  138.1036  165.8366 C.ar    1  UNL1        0.0207
     33 C         138.8078  137.6710  164.4046 C.ar    1  UNL1        0.0989
     34 N         138.7633  138.6925  163.3070 N.ar    1  UNL1       -0.2407
@<TRIPOS>BOND
     1    23    24    1
     2    24    25   ar
     3    25    22    1
     4    22    21    1
     5    21    20    1
     6    20    19    1
     7    19     1    1
     8     1     2    1
     9     2     3    1
    10     3     4    1
    11     4     5    1
    12     5     6    1
    13     6     9    1
    14     9    10   ar
    15    10    11   ar
    16    11    12   ar
    17    12    15    1
    18    15    16    1
    19    15    17    1
    20    15    18    1
    21    12    13   ar
    22    13    14   ar
    23     6     7    1
    24     7     8    1
    25    25    26   ar
    26    26    27   ar
    27    27    28   ar
    28    28    29    1
    29    29    30   ar
    30    30    31   ar
    31    31    32   ar
    32    32    33   ar
    33    33    34   ar
    34    28    24   ar
    35    34    29   ar
    36     8     1    1
    37     7     3    1
    38    14     9   ar
@<TRIPOS>MOLECULE
*****
 34 38 0 0 0
SMALL
GASTEIGER

@<TRIPOS>ATOM
      1 N         140.8481  143.5199  160.1130 N.3     1  UNL1       -0.2712
      2 C         141.3743  144.7166  160.8486 C.3     1  UNL1        0.0738
      3 C         141.1958  144.4729  162.3179 C.3     1  UNL1        0.0372
      4 C         141.4106  145.0619  163.6806 C.3     1  UNL1        0.0245
      5 C         140.9068  144.0787  164.6953 C.3     1  UNL1        0.0909
      6 N         140.3806  142.8820  163.9596 N.pl3   1  UNL1       -0.3077
      7 C         140.5592  143.1256  162.4903 C.3     1  UNL1        0.0901
      8 C         140.3443  142.5367  161.1276 C.3     1  UNL1        0.0921
      9 C         139.7811  141.6568  164.5837 C.ar    1  UNL1        0.0478
     10 C         140.0882  141.3156  166.0117 C.ar    1  UNL1        0.0145
     11 C         139.4887  140.0904  166.6358 C.ar    1  UNL1        0.0051
     12 C         138.5820  139.2064  165.8318 C.ar    1  UNL1        0.0715
     13 C         138.2748  139.5475  164.4037 C.ar    1  UNL1        0.0051
     14 C         138.8744  140.7727  163.7797 C.ar    1  UNL1        0.0145
     15 C         137.9825  137.9812  166.4559 C.3     1  UNL1        0.4186
     16 F         137.3830  136.7560  167.0800 F       1  UNL1       -0.1659
     17 F         137.3755  138.8279  167.5350 F       1  UNL1       -0.1659
     18 F         138.5895  137.1345  165.3768 F       1  UNL1       -0.1659
     19 C         140.8290  143.3383  158.6242 C.3     1  UNL1        0.0731
     20 C         141.9838  142.6742  157.9347 C.3     1  UNL1        0.0294
     21 C         143.3609  143.2583  158.0467 C.3     1  UNL1        0.0666
     22 S         144.4157  142.5455  158.8399 S.3     1  UNL1       -0.0756
     23 C         143.0813  139.7618  159.8980 C.3     1  UNL1        0.1340
     24 N         143.5449  140.9000  160.7579 N.ar    1  UNL1       -0.2872
     25 C         144.1582  142.1796  160.2716 C.ar    1  UNL1        0.1933
     26 N         144.4689  143.0290  161.4682 N.ar    1  UNL1       -0.1221
     27 N         144.0476  142.2744  162.6942 N.ar    1  UNL1       -0.1267
     28 C         143.4764  140.9586  162.2553 C.ar    1  UNL1        0.1846
     29 C         142.9325  139.8892  163.1556 C.ar    1  UNL1        0.1171
     30 C         143.3803  139.8128  164.5851 C.ar    1  UNL1        0.0223
     31 C         142.8364  138.7435  165.4854 C.ar    1  UNL1        0.0032
     32 C         141.8444  137.7505  164.9560 C.ar    1  UNL1        0.0207
     33 C         141.3965  137.8268  163.5265 C.ar    1  UNL1        0.0989
     34 N         141.9406  138.8963  162.6263 N.ar    1  UNL1       -0.2407
@<TRIPOS>BOND
     1    23    24    1
     2    24    25   ar
     3    25    22    1
     4    22    21    1
     5    21    20    1
     6    20    19    1
     7    19     1    1
     8     1     2    1
     9     2     3    1
    10     3     4    1
    11     4     5    1
    12     5     6    1
    13     6     9    1
    14     9    10   ar
    15    10    11   ar
    16    11    12   ar
    17    12    15    1
    18    15    16    1
    19    15    17    1
    20    15    18    1
    21    12    13   ar
    22    13    14   ar
    23     6     7    1
    24     7     8    1
    25    25    26   ar
    26    26    27   ar
    27    27    28   ar
    28    28    29    1
    29    29    30   ar
    30    30    31   ar
    31    31    32   ar
    32    32    33   ar
    33    33    34   ar
    34    28    24   ar
    35    34    29   ar
    36     8     1    1
    37     7     3    1
    38    14     9   ar
@<TRIPOS>MOLECULE
*****
 34 38 0 0 0
SMALL
GASTEIGER

@<TRIPOS>ATOM
      1 N         142.3244  141.9486  161.2457 N.3     1  UNL1       -0.2712
      2 C         142.8887  140.5679  161.0867 C.3     1  UNL1        0.0738
      3 C         142.8130  139.8801  162.4175 C.3     1  UNL1        0.0372
      4 C         143.1149  138.6017  163.1417 C.3     1  UNL1        0.0245
      5 C         142.6905  138.7671  164.5709 C.3     1  UNL1        0.0909
      6 N         142.1262  140.1479  164.7300 N.pl3   1  UNL1       -0.3077
      7 C         142.2019  140.8357  163.3991 C.3     1  UNL1        0.0901
      8 C         141.9000  142.1141  162.6749 C.3     1  UNL1        0.0921
      9 C         141.5819  140.7373  165.9974 C.ar    1  UNL1        0.0478
     10 C         141.5443  139.9150  167.2513 C.ar    1  UNL1        0.0145
     11 C         140.9999  140.5044  168.5187 C.ar    1  UNL1        0.0051
     12 C         140.4932  141.9161  168.5321 C.ar    1  UNL1        0.0715
     13 C         140.5307  142.7385  167.2782 C.ar    1  UNL1        0.0051
     14 C         141.0751  142.1491  166.0108 C.ar    1  UNL1        0.0145
     15 C         139.9488  142.5055  169.7995 C.3     1  UNL1        0.4186
     16 F         139.4044  143.0949  171.0669 F       1  UNL1       -0.1659
     17 F         139.0503  141.3161  169.9667 F       1  UNL1       -0.1659
     18 F         140.8473  143.6950  169.6323 F       1  UNL1       -0.1659
     19 C         142.2055  142.9823  160.1653 C.3     1  UNL1        0.0731
     20 C         141.4129  142.6851  158.9270 C.3     1  UNL1        0.0294
     21 C         140.1117  143.3902  158.6820 C.3     1  UNL1        0.0666
     22 S         138.8193  142.7353  159.0700 S.3     1  UNL1       -0.0756
     23 C         139.4001  139.8695  160.5190 C.3     1  UNL1        0.1340
     24 N         138.8157  141.0861  161.1736 N.ar    1  UNL1       -0.2872
     25 C         138.5487  142.4033  160.5076 C.ar    1  UNL1        0.1933
     26 N         137.9636  143.3304  161.5315 N.ar    1  UNL1       -0.1221
     27 N         137.8690  142.5861  162.8303 N.ar    1  UNL1       -0.1267
     28 C         138.3956  141.1990  162.6092 C.ar    1  UNL1        0.1846
     29 C         138.4862  140.1152  163.6423 C.ar    1  UNL1        0.1171
     30 C         138.0234  140.3756  165.0451 C.ar    1  UNL1        0.0223
     31 C         138.1140  139.2918  166.0782 C.ar    1  UNL1        0.0032
     32 C         138.6675  137.9476  165.7083 C.ar    1  UNL1        0.0207
     33 C         139.1302  137.6871  164.3054 C.ar    1  UNL1        0.0989
     34 N         139.0396  138.7710  163.2724 N.ar    1  UNL1       -0.2407
@<TRIPOS>BOND
     1    23    24    1
     2    24    25   ar
     3    25    22    1
     4    22    21    1
     5    21    20    1
     6    20    19    1
     7    19     1    1
     8     1     2    1
     9     2     3    1
    10     3     4    1
    11     4     5    1
    12     5     6    1
    13     6     9    1
    14     9    10   ar
    15    10    11   ar
    16    11    12   ar
    17    12    15    1
    18    15    16    1
    19    15    17    1
    20    15    18    1
    21    12    13   ar
    22    13    14   ar
    23     6     7    1
    24     7     8    1
    25    25    26   ar
    26    26    27   ar
    27    27    28   ar
    28    28    29    1
    29    29    30   ar
    30    30    31   ar
    31    31    32   ar
    32    32    33   ar
    33    33    34   ar
    34    28    24   ar
    35    34    29   ar
    36     8     1    1
    37     7     3    1
    38    14     9   ar
@<TRIPOS>MOLECULE
*****
 34 38 0 0 0
SMALL
GASTEIGER

@<TRIPOS>ATOM
      1 N         140.8135  143.3838  159.7468 N.3     1  UNL1       -0.2712
      2 C         141.2710  144.6385  160.4297 C.3     1  UNL1        0.0738
      3 C         141.0734  144.4612  161.9060 C.3     1  UNL1        0.0372
      4 C         141.2340  145.1271  163.2405 C.3     1  UNL1        0.0245
      5 C         140.7536  144.1744  164.2948 C.3     1  UNL1        0.0909
      6 N         140.2961  142.9196  163.6119 N.pl3   1  UNL1       -0.3077
      7 C         140.4937  143.0969  162.1356 C.3     1  UNL1        0.0901
      8 C         140.3331  142.4310  160.8011 C.3     1  UNL1        0.0921
      9 C         139.7388  141.7014  164.2868 C.ar    1  UNL1        0.0478
     10 C         138.9538  140.6982  163.4948 C.ar    1  UNL1        0.0145
     11 C         138.3966  139.4800  164.1697 C.ar    1  UNL1        0.0051
     12 C         138.6243  139.2651  165.6367 C.ar    1  UNL1        0.0715
     13 C         139.4093  140.2683  166.4287 C.ar    1  UNL1        0.0051
     14 C         139.9666  141.4865  165.7538 C.ar    1  UNL1        0.0145
     15 C         138.0670  138.0469  166.3116 C.3     1  UNL1        0.4186
     16 F         137.5097  136.8288  166.9865 F       1  UNL1       -0.1659
     17 F         138.6635  137.1812  165.2417 F       1  UNL1       -0.1659
     18 F         137.4705  138.9126  167.3815 F       1  UNL1       -0.1659
     19 C         140.8329  143.1269  158.2691 C.3     1  UNL1        0.0731
     20 C         142.1276  143.1884  157.5142 C.3     1  UNL1        0.0294
     21 C         143.4165  143.4011  158.2515 C.3     1  UNL1        0.0666
     22 S         144.4150  142.2864  158.3533 S.3     1  UNL1       -0.0756
     23 C         144.0305  142.3264  161.5937 C.3     1  UNL1        0.1340
     24 N         143.9495  141.1163  160.7111 N.ar    1  UNL1       -0.2872
     25 C         144.1263  141.0979  159.2216 C.ar    1  UNL1        0.1933
     26 N         143.9636  139.6823  158.7529 N.ar    1  UNL1       -0.1221
     27 N         143.6862  138.8258  159.9527 N.ar    1  UNL1       -0.1267
     28 C         143.6776  139.7120  161.1630 C.ar    1  UNL1        0.1846
     29 C         143.4388  139.2713  162.5768 C.ar    1  UNL1        0.1171
     30 C         142.1333  138.6365  162.9542 C.ar    1  UNL1        0.0223
     31 C         141.8945  138.1959  164.3680 C.ar    1  UNL1        0.0032
     32 C         142.9615  138.3901  165.4044 C.ar    1  UNL1        0.0207
     33 C         144.2671  139.0249  165.0269 C.ar    1  UNL1        0.0989
     34 N         144.5057  139.4655  163.6131 N.ar    1  UNL1       -0.2407
@<TRIPOS>BOND
     1    23    24    1
     2    24    25   ar
     3    25    22    1
     4    22    21    1
     5    21    20    1
     6    20    19    1
     7    19     1    1
     8     1     2    1
     9     2     3    1
    10     3     4    1
    11     4     5    1
    12     5     6    1
    13     6     9    1
    14     9    10   ar
    15    10    11   ar
    16    11    12   ar
    17    12    15    1
    18    15    16    1
    19    15    17    1
    20    15    18    1
    21    12    13   ar
    22    13    14   ar
    23     6     7    1
    24     7     8    1
    25    25    26   ar
    26    26    27   ar
    27    27    28   ar
    28    28    29    1
    29    29    30   ar
    30    30    31   ar
    31    31    32   ar
    32    32    33   ar
    33    33    34   ar
    34    28    24   ar
    35    34    29   ar
    36     8     1    1
    37     7     3    1
    38    14     9   ar
@<TRIPOS>MOLECULE
*****
 34 38 0 0 0
SMALL
GASTEIGER

@<TRIPOS>ATOM
      1 N         140.2269  144.6960  161.4681 N.3     1  UNL1       -0.2712
      2 C         139.3018  145.4670  162.3624 C.3     1  UNL1        0.0738
      3 C         139.3526  144.8466  163.7271 C.3     1  UNL1        0.0372
      4 C         138.8122  144.9396  165.1233 C.3     1  UNL1        0.0245
      5 C         139.4347  143.8427  165.9354 C.3     1  UNL1        0.0909
      6 N         140.3598  143.0718  165.0410 N.pl3   1  UNL1       -0.3077
      7 C         140.3091  143.6922  163.6762 C.3     1  UNL1        0.0901
      8 C         140.8494  143.5991  162.2801 C.3     1  UNL1        0.0921
      9 C         141.1900  141.8882  165.4411 C.ar    1  UNL1        0.0478
     10 C         142.4847  141.6079  164.7375 C.ar    1  UNL1        0.0145
     11 C         143.3148  140.4243  165.1377 C.ar    1  UNL1        0.0051
     12 C         142.8502  139.5212  166.2414 C.ar    1  UNL1        0.0715
     13 C         141.5555  139.8015  166.9451 C.ar    1  UNL1        0.0051
     14 C         140.7253  140.9850  166.5450 C.ar    1  UNL1        0.0145
     15 C         143.6803  138.3376  166.6416 C.3     1  UNL1        0.4186
     16 F         144.5105  137.1541  167.0418 F       1  UNL1       -0.1659
     17 F         144.2602  138.2771  165.2596 F       1  UNL1       -0.1659
     18 F         143.1005  138.3982  168.0237 F       1  UNL1       -0.1659
     19 C         140.4843  144.9732  160.0165 C.3     1  UNL1        0.0731
     20 C         140.0401  143.9896  158.9748 C.3     1  UNL1        0.0294
     21 C         141.0497  143.3491  158.0690 C.3     1  UNL1        0.0666
     22 S         141.2719  141.8667  158.1229 S.3     1  UNL1       -0.0756
     23 C         139.1961  140.1561  159.9707 C.3     1  UNL1        0.1340
     24 N         140.6407  140.4176  160.2785 N.ar    1  UNL1       -0.2872
     25 C         141.5948  141.2038  159.4292 C.ar    1  UNL1        0.1933
     26 N         142.9287  141.2109  160.1154 N.ar    1  UNL1       -0.1221
     27 N         142.7989  140.4289  161.3888 N.ar    1  UNL1       -0.1267
     28 C         141.3848  139.9386  161.4897 C.ar    1  UNL1        0.1846
     29 C         140.8150  139.1142  162.6058 C.ar    1  UNL1        0.1171
     30 C         141.5518  137.9026  163.0950 C.ar    1  UNL1        0.0223
     31 C         140.9820  137.0782  164.2111 C.ar    1  UNL1        0.0032
     32 C         139.6753  137.4654  164.8379 C.ar    1  UNL1        0.0207
     33 C         138.9385  138.6769  164.3487 C.ar    1  UNL1        0.0989
     34 N         139.5084  139.5013  163.2326 N.ar    1  UNL1       -0.2407
@<TRIPOS>BOND
     1    23    24    1
     2    24    25   ar
     3    25    22    1
     4    22    21    1
     5    21    20    1
     6    20    19    1
     7    19     1    1
     8     1     2    1
     9     2     3    1
    10     3     4    1
    11     4     5    1
    12     5     6    1
    13     6     9    1
    14     9    10   ar
    15    10    11   ar
    16    11    12   ar
    17    12    15    1
    18    15    16    1
    19    15    17    1
    20    15    18    1
    21    12    13   ar
    22    13    14   ar
    23     6     7    1
    24     7     8    1
    25    25    26   ar
    26    26    27   ar
    27    27    28   ar
    28    28    29    1
    29    29    30   ar
    30    30    31   ar
    31    31    32   ar
    32    32    33   ar
    33    33    34   ar
    34    28    24   ar
    35    34    29   ar
    36     8     1    1
    37     7     3    1
    38    14     9   ar
@<TRIPOS>MOLECULE
*****
 34 38 0 0 0
SMALL
GASTEIGER

@<TRIPOS>ATOM
      1 N         138.5586  141.4882  160.6459 N.3     1  UNL1       -0.2712
      2 C         138.1813  140.0368  160.6139 C.3     1  UNL1        0.0738
      3 C         138.4614  139.4552  161.9679 C.3     1  UNL1        0.0372
      4 C         138.4013  138.1987  162.7850 C.3     1  UNL1        0.0245
      5 C         138.9147  138.5140  164.1587 C.3     1  UNL1        0.0909
      6 N         139.2920  139.9655  164.1906 N.pl3   1  UNL1       -0.3077
      7 C         139.0119  140.5471  162.8366 C.3     1  UNL1        0.0901
      8 C         139.0720  141.8036  162.0196 C.3     1  UNL1        0.0921
      9 C         139.8513  140.7053  165.3695 C.ar    1  UNL1        0.0478
     10 C         140.6792  139.9783  166.3873 C.ar    1  UNL1        0.0145
     11 C         141.2385  140.7181  167.5662 C.ar    1  UNL1        0.0051
     12 C         140.9699  142.1850  167.7273 C.ar    1  UNL1        0.0715
     13 C         140.1420  142.9122  166.7094 C.ar    1  UNL1        0.0051
     14 C         139.5827  142.1723  165.5306 C.ar    1  UNL1        0.0145
     15 C         141.5292  142.9249  168.9062 C.3     1  UNL1        0.4186
     16 F         142.0885  143.6648  170.0851 F       1  UNL1       -0.1659
     17 F         142.8062  142.1467  168.7887 F       1  UNL1       -0.1659
     18 F         140.2522  143.7031  169.0236 F       1  UNL1       -0.1659
     19 C         138.4430  142.4546  159.5045 C.3     1  UNL1        0.0731
     20 C         139.5648  142.5876  158.5178 C.3     1  UNL1        0.0294
     21 C         139.7532  143.8711  157.7647 C.3     1  UNL1        0.0666
     22 S         140.4373  145.0329  158.4220 S.3     1  UNL1       -0.0756
     23 C         142.7785  143.4062  160.0101 C.3     1  UNL1        0.1340
     24 N         141.7349  144.2836  160.6355 N.ar    1  UNL1       -0.2872
     25 C         140.6588  145.0313  159.9056 C.ar    1  UNL1        0.1933
     26 N         139.8430  145.7771  160.9196 N.ar    1  UNL1       -0.1221
     27 N         140.4150  145.4904  162.2763 N.ar    1  UNL1       -0.1267
     28 C         141.5843  144.5673  162.1008 C.ar    1  UNL1        0.1846
     29 C         142.4507  144.0234  163.1979 C.ar    1  UNL1        0.1171
     30 C         143.3837  144.9350  163.9384 C.ar    1  UNL1        0.0223
     31 C         144.2502  144.3911  165.0355 C.ar    1  UNL1        0.0032
     32 C         144.1835  142.9356  165.3919 C.ar    1  UNL1        0.0207
     33 C         143.2505  142.0240  164.6513 C.ar    1  UNL1        0.0989
     34 N         142.3841  142.5679  163.5543 N.ar    1  UNL1       -0.2407
@<TRIPOS>BOND
     1    23    24    1
     2    24    25   ar
     3    25    22    1
     4    22    21    1
     5    21    20    1
     6    20    19    1
     7    19     1    1
     8     1     2    1
     9     2     3    1
    10     3     4    1
    11     4     5    1
    12     5     6    1
    13     6     9    1
    14     9    10   ar
    15    10    11   ar
    16    11    12   ar
    17    12    15    1
    18    15    16    1
    19    15    17    1
    20    15    18    1
    21    12    13   ar
    22    13    14   ar
    23     6     7    1
    24     7     8    1
    25    25    26   ar
    26    26    27   ar
    27    27    28   ar
    28    28    29    1
    29    29    30   ar
    30    30    31   ar
    31    31    32   ar
    32    32    33   ar
    33    33    34   ar
    34    28    24   ar
    35    34    29   ar
    36     8     1    1
    37     7     3    1
    38    14     9   ar
@<TRIPOS>MOLECULE
*****
 34 38 0 0 0
SMALL
GASTEIGER

@<TRIPOS>ATOM
      1 N         142.5324  138.5572  159.4544 N.3     1  UNL1       -0.2712
      2 C         143.7723  139.2992  159.8569 C.3     1  UNL1        0.0738
      3 C         143.6639  139.6253  161.3170 C.3     1  UNL1        0.0372
      4 C         144.3632  140.2855  162.4681 C.3     1  UNL1        0.0245
      5 C         143.4886  140.1530  163.6796 C.3     1  UNL1        0.0909
      6 N         142.2486  139.4109  163.2770 N.pl3   1  UNL1       -0.3077
      7 C         142.3570  139.0848  161.8169 C.3     1  UNL1        0.0901
      8 C         141.6577  138.4247  160.6658 C.3     1  UNL1        0.0921
      9 C         141.1017  139.0571  164.1767 C.ar    1  UNL1        0.0478
     10 C         140.2477  137.8630  163.8689 C.ar    1  UNL1        0.0145
     11 C         139.1008  137.5092  164.7685 C.ar    1  UNL1        0.0051
     12 C         138.8079  138.3494  165.9761 C.ar    1  UNL1        0.0715
     13 C         139.6619  139.5436  166.2839 C.ar    1  UNL1        0.0051
     14 C         140.8088  139.8974  165.3843 C.ar    1  UNL1        0.0145
     15 C         137.6610  137.9956  166.8757 C.3     1  UNL1        0.4186
     16 F         136.5141  137.6418  167.7754 F       1  UNL1       -0.1659
     17 F         137.7320  139.3570  167.5016 F       1  UNL1       -0.1659
     18 F         137.5900  136.6343  166.2498 F       1  UNL1       -0.1659
     19 C         142.2217  138.0387  158.0816 C.3     1  UNL1        0.0731
     20 C         142.0446  138.9961  156.9406 C.3     1  UNL1        0.0294
     21 C         141.5121  140.3753  157.1944 C.3     1  UNL1        0.0666
     22 S         140.0350  140.6305  157.1410 S.3     1  UNL1       -0.0756
     23 C         140.3194  142.8051  159.5576 C.3     1  UNL1        0.1340
     24 N         139.3620  141.6510  159.5181 N.ar    1  UNL1       -0.2872
     25 C         139.2313  140.6515  158.4073 C.ar    1  UNL1        0.1933
     26 N         138.1557  139.6766  158.7852 N.ar    1  UNL1       -0.1221
     27 N         137.6217  140.0736  160.1295 N.ar    1  UNL1       -0.1267
     28 C         138.3672  141.2939  160.5826 C.ar    1  UNL1        0.1846
     29 C         138.1552  142.0281  161.8733 C.ar    1  UNL1        0.1171
     30 C         138.0605  141.2669  163.1623 C.ar    1  UNL1        0.0223
     31 C         137.8485  142.0011  164.4531 C.ar    1  UNL1        0.0032
     32 C         137.7312  143.4966  164.4547 C.ar    1  UNL1        0.0207
     33 C         137.8259  144.2577  163.1657 C.ar    1  UNL1        0.0989
     34 N         138.0379  143.5235  161.8749 N.ar    1  UNL1       -0.2407
@<TRIPOS>BOND
     1    23    24    1
     2    24    25   ar
     3    25    22    1
     4    22    21    1
     5    21    20    1
     6    20    19    1
     7    19     1    1
     8     1     2    1
     9     2     3    1
    10     3     4    1
    11     4     5    1
    12     5     6    1
    13     6     9    1
    14     9    10   ar
    15    10    11   ar
    16    11    12   ar
    17    12    15    1
    18    15    16    1
    19    15    17    1
    20    15    18    1
    21    12    13   ar
    22    13    14   ar
    23     6     7    1
    24     7     8    1
    25    25    26   ar
    26    26    27   ar
    27    27    28   ar
    28    28    29    1
    29    29    30   ar
    30    30    31   ar
    31    31    32   ar
    32    32    33   ar
    33    33    34   ar
    34    28    24   ar
    35    34    29   ar
    36     8     1    1
    37     7     3    1
    38    14     9   ar
@<TRIPOS>MOLECULE
*****
 34 38 0 0 0
SMALL
GASTEIGER

@<TRIPOS>ATOM
      1 N         141.3651  144.3747  161.8757 N.3     1  UNL1       -0.2712
      2 C         142.7146  144.6512  162.4692 C.3     1  UNL1        0.0738
      3 C         142.8535  143.8217  163.7112 C.3     1  UNL1        0.0372
      4 C         143.7735  143.4800  164.8456 C.3     1  UNL1        0.0245
      5 C         143.0784  142.4796  165.7209 C.3     1  UNL1        0.0909
      6 N         141.7288  142.2030  165.1273 N.pl3   1  UNL1       -0.3077
      7 C         141.5899  143.0325  163.8853 C.3     1  UNL1        0.0901
      8 C         140.6699  143.3743  162.7509 C.3     1  UNL1        0.0921
      9 C         140.6990  141.2622  165.6790 C.ar    1  UNL1        0.0478
     10 C         139.6443  140.6923  164.7775 C.ar    1  UNL1        0.0145
     11 C         138.6145  139.7514  165.3292 C.ar    1  UNL1        0.0051
     12 C         138.6394  139.3805  166.7824 C.ar    1  UNL1        0.0715
     13 C         139.6941  139.9505  167.6840 C.ar    1  UNL1        0.0051
     14 C         140.7239  140.8913  167.1323 C.ar    1  UNL1        0.0145
     15 C         137.6096  138.4397  167.3341 C.3     1  UNL1        0.4186
     16 F         136.5798  137.4989  167.8857 F       1  UNL1       -0.1659
     17 F         137.6199  137.6726  166.0451 F       1  UNL1       -0.1659
     18 F         137.5993  139.2068  168.6230 F       1  UNL1       -0.1659
     19 C         140.8083  144.9904  160.6263 C.3     1  UNL1        0.0731
     20 C         141.5497  144.8560  159.3293 C.3     1  UNL1        0.0294
     21 C         141.4671  143.5788  158.5469 C.3     1  UNL1        0.0666
     22 S         142.6225  142.6223  158.5485 S.3     1  UNL1       -0.0756
     23 C         140.7255  140.4150  160.0246 C.3     1  UNL1        0.1340
     24 N         142.0909  140.8449  160.4729 N.ar    1  UNL1       -0.2872
     25 C         142.9628  141.8594  159.7944 C.ar    1  UNL1        0.1933
     26 N         144.2349  141.9773  160.5805 N.ar    1  UNL1       -0.1221
     27 N         144.1491  141.0355  161.7449 N.ar    1  UNL1       -0.1267
     28 C         142.8241  140.3356  161.6784 C.ar    1  UNL1        0.1846
     29 C         142.3206  139.3071  162.6473 C.ar    1  UNL1        0.1171
     30 C         141.2027  138.3883  162.2522 C.ar    1  UNL1        0.0223
     31 C         140.6993  137.3598  163.2211 C.ar    1  UNL1        0.0032
     32 C         141.3138  137.2502  164.5851 C.ar    1  UNL1        0.0207
     33 C         142.4316  138.1690  164.9802 C.ar    1  UNL1        0.0989
     34 N         142.9351  139.1975  164.0112 N.ar    1  UNL1       -0.2407
@<TRIPOS>BOND
     1    23    24    1
     2    24    25   ar
     3    25    22    1
     4    22    21    1
     5    21    20    1
     6    20    19    1
     7    19     1    1
     8     1     2    1
     9     2     3    1
    10     3     4    1
    11     4     5    1
    12     5     6    1
    13     6     9    1
    14     9    10   ar
    15    10    11   ar
    16    11    12   ar
    17    12    15    1
    18    15    16    1
    19    15    17    1
    20    15    18    1
    21    12    13   ar
    22    13    14   ar
    23     6     7    1
    24     7     8    1
    25    25    26   ar
    26    26    27   ar
    27    27    28   ar
    28    28    29    1
    29    29    30   ar
    30    30    31   ar
    31    31    32   ar
    32    32    33   ar
    33    33    34   ar
    34    28    24   ar
    35    34    29   ar
    36     8     1    1
    37     7     3    1
    38    14     9   ar
