@<TRIPOS>MOLECULE
*****
 32 36 0 0 0
SMALL
GASTEIGER

@<TRIPOS>ATOM
      1 N         142.0676  142.5554  165.6147 N.3     1  UNL1       -0.2710
      2 C         143.2917  142.6359  164.7515 C.3     1  UNL1        0.0728
      3 C         143.1799  143.1140  163.3342 C.3     1  UNL1        0.0298
      4 C         141.8439  143.5115  162.7800 C.3     1  UNL1        0.1147
      5 C         140.6198  143.4309  163.6432 C.3     1  UNL1        0.0298
      6 C         140.7316  142.9529  165.0605 C.3     1  UNL1        0.0728
      7 C         141.7320  143.9895  161.3626 C.2     1  UNL1        0.3507
      8 N         142.6640  143.6437  160.2393 N.2     1  UNL1       -0.0350
      9 C         142.1765  144.3378  159.0021 C.2     1  UNL1        0.2326
     10 C         142.6962  144.3644  157.5953 C.2     1  UNL1        0.0609
     11 C         141.9826  145.1659  156.5472 C.2     1  UNL1        0.0540
     12 CL        142.5023  145.1925  155.1403 Cl      1  UNL1       -0.0828
     13 C         140.7493  145.9406  156.9059 C.2     1  UNL1       -0.0249
     14 C         140.0357  146.7420  155.8578 C.3     1  UNL1        0.0277
     15 C         140.2295  145.9140  158.3127 C.3     1  UNL1        0.1006
     16 C         140.9431  145.1126  159.3608 C.2     1  UNL1        0.2171
     17 N         140.6685  144.8973  160.8197 N.2     1  UNL1       -0.0389
     18 C         142.1795  142.0773  167.0321 C.3     1  UNL1        0.0970
     19 C         142.0422  140.6165  167.3440 C.3     1  UNL1        0.1264
     20 C         142.3509  138.2616  163.5218 C.ar    1  UNL1        0.1593
     21 C         141.1653  137.4948  163.0155 C.ar    1  UNL1        0.1357
     22 N         139.8768  137.5130  163.7833 N.ar    1  UNL1       -0.2392
     23 C         139.7739  138.2980  165.0573 C.ar    1  UNL1        0.0975
     24 C         138.4854  138.3162  165.8250 C.ar    1  UNL1        0.0255
     25 C         138.3825  139.1011  167.0991 C.ar    1  UNL1        0.0623
     26 C         139.5681  139.8680  167.6054 C.ar    1  UNL1        0.2611
     27 O         139.4652  140.6529  168.8794 O.2     1  UNL1       -0.2670
     28 N         140.8566  139.8498  166.8377 N.ar    1  UNL1       -0.2926
     29 C         140.9595  139.0647  165.5636 C.ar    1  UNL1        0.0832
     30 C         142.2480  139.0465  164.7958 C.ar    1  UNL1        0.0573
     31 C         143.6244  138.3801  161.2604 C.3     1  UNL1        0.2525
     32 O         143.6394  138.2434  162.7541 O.3     1  UNL1       -0.4698
@<TRIPOS>BOND
     1    31    32    1
     2    32    20    1
     3    20    21   ar
     4    21    22   ar
     5    22    23   ar
     6    23    24   ar
     7    24    25   ar
     8    25    26   ar
     9    26    27    2
    10    26    28   ar
    11    28    19    1
    12    19    18    1
    13    18     1    1
    14     1     2    1
    15     2     3    1
    16     3     4    1
    17     4     7    1
    18     7     8    2
    19     8     9    1
    20     9    10    2
    21    10    11    1
    22    11    12    1
    23    11    13    2
    24    13    14    1
    25    13    15    1
    26    15    16    1
    27    16    17    2
    28     4     5    1
    29     5     6    1
    30    28    29   ar
    31    29    30   ar
    32    30    20   ar
    33    29    23   ar
    34     6     1    1
    35    17     7    1
    36    16     9    1
@<TRIPOS>MOLECULE
*****
 32 36 0 0 0
SMALL
GASTEIGER

@<TRIPOS>ATOM
      1 N         142.6622  142.8211  164.0826 N.3     1  UNL1       -0.2710
      2 C         143.7821  143.1543  163.1420 C.3     1  UNL1        0.0728
      3 C         143.4787  143.6955  161.7764 C.3     1  UNL1        0.0298
      4 C         142.0553  143.9036  161.3514 C.3     1  UNL1        0.1147
      5 C         140.9354  143.5705  162.2920 C.3     1  UNL1        0.0298
      6 C         141.2388  143.0292  163.6576 C.3     1  UNL1        0.0728
      7 C         141.7518  144.4448  159.9857 C.2     1  UNL1        0.3507
      8 N         142.5488  144.1928  158.7402 N.2     1  UNL1       -0.0350
      9 C         141.8876  144.9253  157.6106 C.2     1  UNL1        0.2326
     10 C         142.2276  145.0417  156.1543 C.2     1  UNL1        0.0609
     11 C         141.3618  145.8628  155.2453 C.2     1  UNL1        0.0540
     12 CL        141.7018  145.9792  153.7889 Cl      1  UNL1       -0.0828
     13 C         140.1562  146.5677  155.7926 C.2     1  UNL1       -0.0249
     14 C         139.2905  147.3888  154.8836 C.3     1  UNL1        0.0277
     15 C         139.8162  146.4513  157.2489 C.3     1  UNL1        0.1006
     16 C         140.6819  145.6302  158.1579 C.2     1  UNL1        0.2171
     17 N         140.5980  145.3332  159.6258 N.2     1  UNL1       -0.0389
     18 C         142.9657  142.2799  165.4483 C.3     1  UNL1        0.0970
     19 C         142.9819  140.7982  165.6812 C.3     1  UNL1        0.1264
     20 C         139.0939  138.7628  164.6860 C.ar    1  UNL1        0.1593
     21 C         139.0175  137.8197  163.5221 C.ar    1  UNL1        0.1357
     22 N         140.2371  137.5551  162.6899 N.ar    1  UNL1       -0.2392
     23 C         141.5331  138.2335  163.0216 C.ar    1  UNL1        0.0975
     24 C         142.7526  137.9689  162.1894 C.ar    1  UNL1        0.0255
     25 C         144.0486  138.6474  162.5211 C.ar    1  UNL1        0.0623
     26 C         144.1251  139.5905  163.6851 C.ar    1  UNL1        0.2611
     27 O         145.4211  140.2689  164.0168 O.2     1  UNL1       -0.2670
     28 N         142.9055  139.8551  164.5173 N.ar    1  UNL1       -0.2926
     29 C         141.6095  139.1766  164.1855 C.ar    1  UNL1        0.0832
     30 C         140.3899  139.4412  165.0177 C.ar    1  UNL1        0.0573
     31 C         137.8621  138.6539  166.9710 C.3     1  UNL1        0.2525
     32 O         137.8743  139.0274  165.5183 O.3     1  UNL1       -0.4698
@<TRIPOS>BOND
     1    31    32    1
     2    32    20    1
     3    20    21   ar
     4    21    22   ar
     5    22    23   ar
     6    23    24   ar
     7    24    25   ar
     8    25    26   ar
     9    26    27    2
    10    26    28   ar
    11    28    19    1
    12    19    18    1
    13    18     1    1
    14     1     2    1
    15     2     3    1
    16     3     4    1
    17     4     7    1
    18     7     8    2
    19     8     9    1
    20     9    10    2
    21    10    11    1
    22    11    12    1
    23    11    13    2
    24    13    14    1
    25    13    15    1
    26    15    16    1
    27    16    17    2
    28     4     5    1
    29     5     6    1
    30    28    29   ar
    31    29    30   ar
    32    30    20   ar
    33    29    23   ar
    34     6     1    1
    35    17     7    1
    36    16     9    1
@<TRIPOS>MOLECULE
*****
 32 36 0 0 0
SMALL
GASTEIGER

@<TRIPOS>ATOM
      1 N         140.2363  142.7656  164.6354 N.3     1  UNL1       -0.2710
      2 C         141.4793  143.5073  164.2418 C.3     1  UNL1        0.0728
      3 C         141.6479  143.9940  162.8330 C.3     1  UNL1        0.0298
      4 C         140.5736  143.7389  161.8178 C.3     1  UNL1        0.1147
      5 C         139.3306  142.9973  162.2114 C.3     1  UNL1        0.0298
      6 C         139.1620  142.5106  163.6202 C.3     1  UNL1        0.0728
      7 C         140.7421  144.2256  160.4090 C.2     1  UNL1        0.3507
      8 N         141.7593  143.7342  159.4222 N.2     1  UNL1       -0.0350
      9 C         141.5689  144.4940  158.1429 C.2     1  UNL1        0.2326
     10 C         142.2823  144.4350  156.8248 C.2     1  UNL1        0.0609
     11 C         141.8608  145.3370  155.7028 C.2     1  UNL1        0.0540
     12 CL        142.5742  145.2779  154.3846 Cl      1  UNL1       -0.0828
     13 C         140.7259  146.2979  155.8990 C.2     1  UNL1       -0.0249
     14 C         140.3045  147.1999  154.7770 C.3     1  UNL1        0.0277
     15 C         140.0125  146.3570  157.2171 C.3     1  UNL1        0.1006
     16 C         140.4340  145.4550  158.3391 C.2     1  UNL1        0.2171
     17 N         139.9230  145.2891  159.7396 N.2     1  UNL1       -0.0389
     18 C         140.0678  142.2790  166.0442 C.3     1  UNL1        0.0970
     19 C         140.5033  140.8926  166.4160 C.3     1  UNL1        0.1264
     20 C         144.0874  139.8372  163.9079 C.ar    1  UNL1        0.1593
     21 C         143.9985  138.7281  162.9020 C.ar    1  UNL1        0.1357
     22 N         142.7149  137.9708  162.7320 N.ar    1  UNL1       -0.2392
     23 C         141.5202  138.3226  163.5680 C.ar    1  UNL1        0.0975
     24 C         140.2366  137.5653  163.3981 C.ar    1  UNL1        0.0255
     25 C         139.0419  137.9170  164.2340 C.ar    1  UNL1        0.0623
     26 C         139.1308  139.0262  165.2401 C.ar    1  UNL1        0.2611
     27 O         137.9361  139.3780  166.0761 O.2     1  UNL1       -0.2670
     28 N         140.4144  139.7835  165.4100 N.ar    1  UNL1       -0.2926
     29 C         141.6091  139.4317  164.5740 C.ar    1  UNL1        0.0832
     30 C         142.8927  140.1890  164.7439 C.ar    1  UNL1        0.0573
     31 C         145.6603  141.7841  163.2113 C.3     1  UNL1        0.2525
     32 O         145.3710  140.5945  164.0779 O.3     1  UNL1       -0.4698
@<TRIPOS>BOND
     1    31    32    1
     2    32    20    1
     3    20    21   ar
     4    21    22   ar
     5    22    23   ar
     6    23    24   ar
     7    24    25   ar
     8    25    26   ar
     9    26    27    2
    10    26    28   ar
    11    28    19    1
    12    19    18    1
    13    18     1    1
    14     1     2    1
    15     2     3    1
    16     3     4    1
    17     4     7    1
    18     7     8    2
    19     8     9    1
    20     9    10    2
    21    10    11    1
    22    11    12    1
    23    11    13    2
    24    13    14    1
    25    13    15    1
    26    15    16    1
    27    16    17    2
    28     4     5    1
    29     5     6    1
    30    28    29   ar
    31    29    30   ar
    32    30    20   ar
    33    29    23   ar
    34     6     1    1
    35    17     7    1
    36    16     9    1
@<TRIPOS>MOLECULE
*****
 32 36 0 0 0
SMALL
GASTEIGER

@<TRIPOS>ATOM
      1 N         142.6854  143.3179  164.4622 N.3     1  UNL1       -0.2710
      2 C         141.3328  143.8839  164.1459 C.3     1  UNL1        0.0728
      3 C         141.0127  144.3256  162.7486 C.3     1  UNL1        0.0298
      4 C         142.0451  144.2013  161.6677 C.3     1  UNL1        0.1147
      5 C         143.3978  143.6352  161.9840 C.3     1  UNL1        0.0298
      6 C         143.7179  143.1935  163.3812 C.3     1  UNL1        0.0728
      7 C         141.7250  144.6430  160.2703 C.2     1  UNL1        0.3507
      8 N         140.5441  145.4697  159.8557 N.2     1  UNL1       -0.0350
      9 C         140.6189  145.6732  158.3715 C.2     1  UNL1        0.2326
     10 C         139.7281  146.4062  157.4127 C.2     1  UNL1        0.0609
     11 C         140.0645  146.4382  155.9512 C.2     1  UNL1        0.0540
     12 CL        139.1737  147.1712  154.9924 Cl      1  UNL1       -0.0828
     13 C         141.2917  145.7373  155.4486 C.2     1  UNL1       -0.0249
     14 C         141.6281  145.7693  153.9871 C.3     1  UNL1        0.0277
     15 C         142.1825  145.0043  156.4073 C.3     1  UNL1        0.1006
     16 C         141.8461  144.9722  157.8687 C.2     1  UNL1        0.2171
     17 N         142.5297  144.3356  159.0423 N.2     1  UNL1       -0.0389
     18 C         143.0055  142.8762  165.8595 C.3     1  UNL1        0.0970
     19 C         142.8610  141.4328  166.2415 C.3     1  UNL1        0.1264
     20 C         139.0228  139.3386  165.1773 C.ar    1  UNL1        0.1593
     21 C         138.0608  138.9413  166.2574 C.ar    1  UNL1        0.1357
     22 N         138.3782  139.2422  167.6923 N.ar    1  UNL1       -0.2392
     23 C         139.6575  139.9402  168.0470 C.ar    1  UNL1        0.0975
     24 C         139.9749  140.2410  169.4818 C.ar    1  UNL1        0.0255
     25 C         141.2543  140.9391  169.8366 C.ar    1  UNL1        0.0623
     26 C         142.2163  141.3364  168.7564 C.ar    1  UNL1        0.2611
     27 O         143.4957  142.0344  169.1112 O.2     1  UNL1       -0.2670
     28 N         141.8990  141.0356  167.3216 N.ar    1  UNL1       -0.2926
     29 C         140.6195  140.3375  166.9669 C.ar    1  UNL1        0.0832
     30 C         140.3022  140.0367  165.5320 C.ar    1  UNL1        0.0573
     31 C         138.8445  137.6383  163.2210 C.3     1  UNL1        0.2525
     32 O         138.7054  139.0378  163.7424 O.3     1  UNL1       -0.4698
@<TRIPOS>BOND
     1    31    32    1
     2    32    20    1
     3    20    21   ar
     4    21    22   ar
     5    22    23   ar
     6    23    24   ar
     7    24    25   ar
     8    25    26   ar
     9    26    27    2
    10    26    28   ar
    11    28    19    1
    12    19    18    1
    13    18     1    1
    14     1     2    1
    15     2     3    1
    16     3     4    1
    17     4     7    1
    18     7     8    2
    19     8     9    1
    20     9    10    2
    21    10    11    1
    22    11    12    1
    23    11    13    2
    24    13    14    1
    25    13    15    1
    26    15    16    1
    27    16    17    2
    28     4     5    1
    29     5     6    1
    30    28    29   ar
    31    29    30   ar
    32    30    20   ar
    33    29    23   ar
    34     6     1    1
    35    17     7    1
    36    16     9    1
@<TRIPOS>MOLECULE
*****
 32 36 0 0 0
SMALL
GASTEIGER

@<TRIPOS>ATOM
      1 N         143.2734  142.6040  164.0093 N.3     1  UNL1       -0.2710
      2 C         142.7488  144.0061  163.9136 C.3     1  UNL1        0.0728
      3 C         142.3484  144.5678  162.5817 C.3     1  UNL1        0.0298
      4 C         142.4726  143.7274  161.3454 C.3     1  UNL1        0.1147
      5 C         142.9972  142.3254  161.4411 C.3     1  UNL1        0.0298
      6 C         143.3976  141.7637  162.7730 C.3     1  UNL1        0.0728
      7 C         142.0722  144.2891  160.0133 C.2     1  UNL1        0.3507
      8 N         142.7595  144.0315  158.7052 N.2     1  UNL1       -0.0350
      9 C         142.0263  144.7902  157.6390 C.2     1  UNL1        0.2326
     10 C         142.2498  144.9134  156.1609 C.2     1  UNL1        0.0609
     11 C         141.3327  145.7631  155.3320 C.2     1  UNL1        0.0540
     12 CL        141.5562  145.8863  153.8538 Cl      1  UNL1       -0.0828
     13 C         140.1923  146.4896  155.9812 C.2     1  UNL1       -0.0249
     14 C         139.2753  147.3393  155.1522 C.3     1  UNL1        0.0277
     15 C         139.9688  146.3664  157.4593 C.3     1  UNL1        0.1006
     16 C         140.8858  145.5168  158.2882 C.2     1  UNL1        0.2171
     17 N         140.9142  145.2070  159.7556 N.2     1  UNL1       -0.0389
     18 C         143.6738  142.0423  165.3413 C.3     1  UNL1        0.0970
     19 C         142.6747  141.2889  166.1685 C.3     1  UNL1        0.1264
     20 C         138.5514  142.1253  164.5721 C.ar    1  UNL1        0.1593
     21 C         137.7477  141.0196  163.9545 C.ar    1  UNL1        0.1357
     22 N         138.3186  139.6351  163.8689 N.ar    1  UNL1       -0.2392
     23 C         139.6930  139.3563  164.4010 C.ar    1  UNL1        0.0975
     24 C         140.2638  137.9718  164.3155 C.ar    1  UNL1        0.0255
     25 C         141.6382  137.6930  164.8476 C.ar    1  UNL1        0.0623
     26 C         142.4419  138.7987  165.4653 C.ar    1  UNL1        0.2611
     27 O         143.8163  138.5199  165.9974 O.2     1  UNL1       -0.2670
     28 N         141.8711  140.1832  165.5509 N.ar    1  UNL1       -0.2926
     29 C         140.4966  140.4620  165.0187 C.ar    1  UNL1        0.0832
     30 C         139.9258  141.8465  165.1042 C.ar    1  UNL1        0.0573
     31 C         138.8229  144.6376  165.1756 C.3     1  UNL1        0.2525
     32 O         137.9805  143.5098  164.6577 O.3     1  UNL1       -0.4698
@<TRIPOS>BOND
     1    31    32    1
     2    32    20    1
     3    20    21   ar
     4    21    22   ar
     5    22    23   ar
     6    23    24   ar
     7    24    25   ar
     8    25    26   ar
     9    26    27    2
    10    26    28   ar
    11    28    19    1
    12    19    18    1
    13    18     1    1
    14     1     2    1
    15     2     3    1
    16     3     4    1
    17     4     7    1
    18     7     8    2
    19     8     9    1
    20     9    10    2
    21    10    11    1
    22    11    12    1
    23    11    13    2
    24    13    14    1
    25    13    15    1
    26    15    16    1
    27    16    17    2
    28     4     5    1
    29     5     6    1
    30    28    29   ar
    31    29    30   ar
    32    30    20   ar
    33    29    23   ar
    34     6     1    1
    35    17     7    1
    36    16     9    1
@<TRIPOS>MOLECULE
*****
 32 36 0 0 0
SMALL
GASTEIGER

@<TRIPOS>ATOM
      1 N         140.7683  143.3938  164.9172 N.3     1  UNL1       -0.2710
      2 C         141.9991  143.0696  164.1235 C.3     1  UNL1        0.0728
      3 C         142.0820  143.4564  162.6767 C.3     1  UNL1        0.0298
      4 C         140.9341  144.1674  162.0235 C.3     1  UNL1        0.1147
      5 C         139.7033  144.4916  162.8172 C.3     1  UNL1        0.0298
      6 C         139.6203  144.1048  164.2640 C.3     1  UNL1        0.0728
      7 C         141.0170  144.5543  160.5766 C.2     1  UNL1        0.3507
      8 N         142.0660  144.1058  159.6027 N.2     1  UNL1       -0.0350
      9 C         141.7627  144.7319  158.2738 C.2     1  UNL1        0.2326
     10 C         142.4527  144.6492  156.9444 C.2     1  UNL1        0.0609
     11 C         141.9061  145.4020  155.7677 C.2     1  UNL1        0.0540
     12 CL        142.5961  145.3193  154.4383 Cl      1  UNL1       -0.0828
     13 C         140.6697  146.2373  155.9202 C.2     1  UNL1       -0.0249
     14 C         140.1232  146.9900  154.7435 C.3     1  UNL1        0.0277
     15 C         139.9797  146.3200  157.2495 C.3     1  UNL1        0.1006
     16 C         140.5262  145.5673  158.4263 C.2     1  UNL1        0.2171
     17 N         140.0653  145.4575  159.8495 N.2     1  UNL1       -0.0389
     18 C         140.6854  143.0070  166.3642 C.3     1  UNL1        0.0970
     19 C         140.2524  141.6227  166.7468 C.3     1  UNL1        0.1264
     20 C         138.9681  139.1606  163.2058 C.ar    1  UNL1        0.1593
     21 C         139.7835  137.9754  162.7811 C.ar    1  UNL1        0.1357
     22 N         141.0270  137.6109  163.5366 N.ar    1  UNL1       -0.2392
     23 C         141.4551  138.4316  164.7169 C.ar    1  UNL1        0.0975
     24 C         142.6985  138.0671  165.4725 C.ar    1  UNL1        0.0255
     25 C         143.1266  138.8878  166.6528 C.ar    1  UNL1        0.0623
     26 C         142.3113  140.0730  167.0776 C.ar    1  UNL1        0.2611
     27 O         142.7394  140.8937  168.2579 O.2     1  UNL1       -0.2670
     28 N         141.0678  140.4375  166.3220 N.ar    1  UNL1       -0.2926
     29 C         140.6397  139.6168  165.1417 C.ar    1  UNL1        0.0832
     30 C         139.3962  139.9813  164.3861 C.ar    1  UNL1        0.0573
     31 C         137.6170  139.2119  160.9873 C.3     1  UNL1        0.2525
     32 O         137.7246  139.5251  162.4502 O.3     1  UNL1       -0.4698
@<TRIPOS>BOND
     1    31    32    1
     2    32    20    1
     3    20    21   ar
     4    21    22   ar
     5    22    23   ar
     6    23    24   ar
     7    24    25   ar
     8    25    26   ar
     9    26    27    2
    10    26    28   ar
    11    28    19    1
    12    19    18    1
    13    18     1    1
    14     1     2    1
    15     2     3    1
    16     3     4    1
    17     4     7    1
    18     7     8    2
    19     8     9    1
    20     9    10    2
    21    10    11    1
    22    11    12    1
    23    11    13    2
    24    13    14    1
    25    13    15    1
    26    15    16    1
    27    16    17    2
    28     4     5    1
    29     5     6    1
    30    28    29   ar
    31    29    30   ar
    32    30    20   ar
    33    29    23   ar
    34     6     1    1
    35    17     7    1
    36    16     9    1
@<TRIPOS>MOLECULE
*****
 32 36 0 0 0
SMALL
GASTEIGER

@<TRIPOS>ATOM
      1 N         142.2001  143.0085  164.4100 N.3     1  UNL1       -0.2710
      2 C         140.8312  143.3873  163.9279 C.3     1  UNL1        0.0728
      3 C         140.6383  143.8688  162.5205 C.3     1  UNL1        0.0298
      4 C         141.8144  143.9714  161.5952 C.3     1  UNL1        0.1147
      5 C         143.1833  143.5926  162.0773 C.3     1  UNL1        0.0298
      6 C         143.3762  143.1111  163.4847 C.3     1  UNL1        0.0728
      7 C         141.6215  144.4529  160.1876 C.2     1  UNL1        0.3507
      8 N         142.4824  144.1028  159.0102 N.2     1  UNL1       -0.0350
      9 C         141.9268  144.8025  157.8054 C.2     1  UNL1        0.2326
     10 C         142.3619  144.8282  156.3701 C.2     1  UNL1        0.0609
     11 C         141.5927  145.6365  155.3676 C.2     1  UNL1        0.0540
     12 CL        142.0278  145.6622  153.9323 Cl      1  UNL1       -0.0828
     13 C         140.3885  146.4191  155.8003 C.2     1  UNL1       -0.0249
     14 C         139.6194  147.2274  154.7978 C.3     1  UNL1        0.0277
     15 C         139.9534  146.3935  157.2356 C.3     1  UNL1        0.1006
     16 C         140.7225  145.5852  158.2381 C.2     1  UNL1        0.2171
     17 N         140.5339  145.3691  159.7104 N.2     1  UNL1       -0.0389
     18 C         142.3930  142.5270  165.8176 C.3     1  UNL1        0.0970
     19 C         142.3247  141.0603  166.1245 C.3     1  UNL1        0.1264
     20 C         140.0422  140.7079  169.9866 C.ar    1  UNL1        0.1593
     21 C         138.7158  140.0081  170.0126 C.ar    1  UNL1        0.1357
     22 N         138.1502  139.4257  168.7513 N.ar    1  UNL1       -0.2392
     23 C         138.9110  139.5431  167.4640 C.ar    1  UNL1        0.0975
     24 C         138.3454  138.9607  166.2027 C.ar    1  UNL1        0.0255
     25 C         139.1062  139.0782  164.9153 C.ar    1  UNL1        0.0623
     26 C         140.4327  139.7781  164.8892 C.ar    1  UNL1        0.2611
     27 O         141.1935  139.8955  163.6019 O.2     1  UNL1       -0.2670
     28 N         140.9983  140.3605  166.1505 N.ar    1  UNL1       -0.2926
     29 C         140.2374  140.2430  167.4379 C.ar    1  UNL1        0.0832
     30 C         140.8030  140.8254  168.6992 C.ar    1  UNL1        0.0573
     31 C         141.8303  142.1577  171.1911 C.3     1  UNL1        0.2525
     32 O         140.6078  141.2903  171.2479 O.3     1  UNL1       -0.4698
@<TRIPOS>BOND
     1    31    32    1
     2    32    20    1
     3    20    21   ar
     4    21    22   ar
     5    22    23   ar
     6    23    24   ar
     7    24    25   ar
     8    25    26   ar
     9    26    27    2
    10    26    28   ar
    11    28    19    1
    12    19    18    1
    13    18     1    1
    14     1     2    1
    15     2     3    1
    16     3     4    1
    17     4     7    1
    18     7     8    2
    19     8     9    1
    20     9    10    2
    21    10    11    1
    22    11    12    1
    23    11    13    2
    24    13    14    1
    25    13    15    1
    26    15    16    1
    27    16    17    2
    28     4     5    1
    29     5     6    1
    30    28    29   ar
    31    29    30   ar
    32    30    20   ar
    33    29    23   ar
    34     6     1    1
    35    17     7    1
    36    16     9    1
@<TRIPOS>MOLECULE
*****
 32 36 0 0 0
SMALL
GASTEIGER

@<TRIPOS>ATOM
      1 N         141.3766  143.2257  164.4564 N.3     1  UNL1       -0.2710
      2 C         140.0799  143.1548  163.7057 C.3     1  UNL1        0.0728
      3 C         140.0150  143.6054  162.2765 C.3     1  UNL1        0.0298
      4 C         141.2469  144.1269  161.5980 C.3     1  UNL1        0.1147
      5 C         142.5436  144.1978  162.3486 C.3     1  UNL1        0.0298
      6 C         142.6085  143.7472  163.7778 C.3     1  UNL1        0.0728
      7 C         141.1821  144.5776  160.1687 C.2     1  UNL1        0.3507
      8 N         140.1460  145.4865  159.5769 N.2     1  UNL1       -0.0350
      9 C         140.4656  145.6691  158.1228 C.2     1  UNL1        0.2326
     10 C         139.7927  146.4574  157.0384 C.2     1  UNL1        0.0609
     11 C         140.3534  146.4495  155.6472 C.2     1  UNL1        0.0540
     12 CL        139.6805  147.2378  154.5629 Cl      1  UNL1       -0.0828
     13 C         141.5871  145.6533  155.3403 C.2     1  UNL1       -0.0249
     14 C         142.1477  145.6455  153.9491 C.3     1  UNL1        0.0277
     15 C         142.2600  144.8650  156.4246 C.3     1  UNL1        0.1006
     16 C         141.6993  144.8728  157.8158 C.2     1  UNL1        0.2171
     17 N         142.1421  144.1983  159.0802 N.2     1  UNL1       -0.0389
     18 C         141.4414  142.7751  165.8857 C.3     1  UNL1        0.0970
     19 C         141.7046  141.3336  166.2064 C.3     1  UNL1        0.1264
     20 C         141.4076  138.7807  162.5126 C.ar    1  UNL1        0.1593
     21 C         140.3059  137.7708  162.3855 C.ar    1  UNL1        0.1357
     22 N         139.3031  137.6118  163.4896 N.ar    1  UNL1       -0.2392
     23 C         139.4021  138.4628  164.7209 C.ar    1  UNL1        0.0975
     24 C         138.3993  138.3038  165.8251 C.ar    1  UNL1        0.0255
     25 C         138.4983  139.1548  167.0563 C.ar    1  UNL1        0.0623
     26 C         139.6001  140.1648  167.1835 C.ar    1  UNL1        0.2611
     27 O         139.6991  141.0157  168.4147 O.2     1  UNL1       -0.2670
     28 N         140.6029  140.3237  166.0793 N.ar    1  UNL1       -0.2926
     29 C         140.5039  139.4727  164.8480 C.ar    1  UNL1        0.0832
     30 C         141.5066  139.6316  163.7438 C.ar    1  UNL1        0.0573
     31 C         143.7365  138.2440  161.4937 C.3     1  UNL1        0.2525
     32 O         142.4104  138.9397  161.4084 O.3     1  UNL1       -0.4698
@<TRIPOS>BOND
     1    31    32    1
     2    32    20    1
     3    20    21   ar
     4    21    22   ar
     5    22    23   ar
     6    23    24   ar
     7    24    25   ar
     8    25    26   ar
     9    26    27    2
    10    26    28   ar
    11    28    19    1
    12    19    18    1
    13    18     1    1
    14     1     2    1
    15     2     3    1
    16     3     4    1
    17     4     7    1
    18     7     8    2
    19     8     9    1
    20     9    10    2
    21    10    11    1
    22    11    12    1
    23    11    13    2
    24    13    14    1
    25    13    15    1
    26    15    16    1
    27    16    17    2
    28     4     5    1
    29     5     6    1
    30    28    29   ar
    31    29    30   ar
    32    30    20   ar
    33    29    23   ar
    34     6     1    1
    35    17     7    1
    36    16     9    1
@<TRIPOS>MOLECULE
*****
 32 36 0 0 0
SMALL
GASTEIGER

@<TRIPOS>ATOM
      1 N         144.6028  141.7580  163.1152 N.3     1  UNL1       -0.2710
      2 C         144.3991  142.3963  161.7731 C.3     1  UNL1        0.0728
      3 C         143.7531  141.6203  160.6639 C.3     1  UNL1        0.0298
      4 C         143.3108  140.2060  160.8968 C.3     1  UNL1        0.1147
      5 C         143.5145  139.5678  162.2388 C.3     1  UNL1        0.0298
      6 C         144.1605  140.3438  163.3481 C.3     1  UNL1        0.0728
      7 C         142.6647  139.4299  159.7875 C.2     1  UNL1        0.3507
      8 N         141.2719  139.6288  159.2673 N.2     1  UNL1       -0.0350
      9 C         141.0445  138.6405  158.1620 C.2     1  UNL1        0.2326
     10 C         139.8589  138.3732  157.2828 C.2     1  UNL1        0.0609
     11 C         139.9255  137.2963  156.2408 C.2     1  UNL1        0.0540
     12 CL        138.7400  137.0290  155.3616 Cl      1  UNL1       -0.0828
     13 C         141.1777  136.4866  156.0780 C.2     1  UNL1       -0.0249
     14 C         141.2443  135.4097  155.0360 C.3     1  UNL1        0.0277
     15 C         142.3633  136.7539  156.9572 C.3     1  UNL1        0.1006
     16 C         142.2967  137.8308  157.9992 C.2     1  UNL1        0.2171
     17 N         143.2980  138.3187  159.0038 N.2     1  UNL1       -0.0389
     18 C         145.2489  142.5341  164.2245 C.3     1  UNL1        0.0970
     19 C         144.3995  143.2370  165.2416 C.3     1  UNL1        0.1264
     20 C         142.1282  140.1454  167.5939 C.ar    1  UNL1        0.1593
     21 C         140.6329  140.0788  167.4972 C.ar    1  UNL1        0.1357
     22 N         139.8946  141.0428  166.6165 N.ar    1  UNL1       -0.2392
     23 C         140.6517  142.0733  165.8324 C.ar    1  UNL1        0.0975
     24 C         139.9134  143.0373  164.9516 C.ar    1  UNL1        0.0255
     25 C         140.6704  144.0678  164.1676 C.ar    1  UNL1        0.0623
     26 C         142.1659  144.1344  164.2642 C.ar    1  UNL1        0.2611
     27 O         142.9230  145.1649  163.4801 O.2     1  UNL1       -0.2670
     28 N         142.9042  143.1704  165.1449 N.ar    1  UNL1       -0.2926
     29 C         142.1470  142.1399  165.9291 C.ar    1  UNL1        0.0832
     30 C         142.8853  141.1759  166.8098 C.ar    1  UNL1        0.0573
     31 C         142.4658  139.0199  169.9111 C.3     1  UNL1        0.2525
     32 O         142.8665  139.1814  168.4747 O.3     1  UNL1       -0.4698
@<TRIPOS>BOND
     1    31    32    1
     2    32    20    1
     3    20    21   ar
     4    21    22   ar
     5    22    23   ar
     6    23    24   ar
     7    24    25   ar
     8    25    26   ar
     9    26    27    2
    10    26    28   ar
    11    28    19    1
    12    19    18    1
    13    18     1    1
    14     1     2    1
    15     2     3    1
    16     3     4    1
    17     4     7    1
    18     7     8    2
    19     8     9    1
    20     9    10    2
    21    10    11    1
    22    11    12    1
    23    11    13    2
    24    13    14    1
    25    13    15    1
    26    15    16    1
    27    16    17    2
    28     4     5    1
    29     5     6    1
    30    28    29   ar
    31    29    30   ar
    32    30    20   ar
    33    29    23   ar
    34     6     1    1
    35    17     7    1
    36    16     9    1
