@<TRIPOS>MOLECULE
*****
 41 44 0 0 0
SMALL
GASTEIGER

@<TRIPOS>ATOM
      1 C         142.8603  138.0488  159.9242 C.3     1  UNL1        0.0889
      2 C         142.3665  137.6643  158.5610 C.3     1  UNL1        0.0383
      3 C         142.9393  138.6338  157.5700 C.3     1  UNL1        0.0739
      4 N         143.7871  139.6175  158.3208 N.3     1  UNL1       -0.2700
      5 C         143.7383  139.2559  159.7757 C.3     1  UNL1        0.0919
      6 O         140.8199  139.2140  161.7894 O.2     1  UNL1       -0.2733
      7 C         141.5133  137.9317  162.1427 C.2     1  UNL1        0.2425
      8 N         142.5334  137.3491  161.2101 N.am    1  UNL1       -0.3032
      9 H         142.9885  136.5074  161.4420 H       1  UNL1        0.1495
     10 C         141.1865  137.2319  163.4286 C.3     1  UNL1        0.1759
     11 N         140.8152  138.0298  164.6434 N.am    1  UNL1       -0.2931
     12 C         141.8789  138.7353  165.4312 C.2     1  UNL1        0.2462
     13 O         143.3139  138.6429  165.0044 O.2     1  UNL1       -0.2701
     14 H         139.8733  138.0904  164.9235 H       1  UNL1        0.1502
     15 C         141.5076  139.5332  166.6460 C.ar    1  UNL1        0.0533
     16 C         140.0937  139.5229  167.1467 C.ar    1  UNL1        0.0045
     17 C         139.7225  140.3207  168.3614 C.ar    1  UNL1        0.0001
     18 C         140.7651  141.1289  169.0754 C.ar    1  UNL1        0.0039
     19 C         142.1790  141.1392  168.5746 C.ar    1  UNL1        0.0716
     20 C         142.5502  140.3414  167.3599 C.ar    1  UNL1        0.0084
     21 C         143.2217  141.9474  169.2886 C.3     1  UNL1        0.4186
     22 F         144.2643  142.7556  170.0025 F       1  UNL1       -0.1659
     23 F         143.6683  142.5276  167.9795 F       1  UNL1       -0.1659
     24 F         142.7750  141.3672  170.5977 F       1  UNL1       -0.1659
     25 C         144.5499  140.7618  157.7218 C.3     1  UNL1        0.0897
     26 C         144.2352  142.1697  158.1325 C.3     1  UNL1        0.0897
     27 N         143.8478  142.4684  159.5505 N.3     1  UNL1       -0.2686
     28 C         142.4002  142.5986  159.9210 C.3     1  UNL1        0.0939
     29 C         142.0128  142.8974  161.3391 C.3     1  UNL1        0.1110
     30 N         143.0732  143.0658  162.3865 N.am    1  UNL1       -0.2732
     31 C         142.6858  143.3646  163.8046 C.2     1  UNL1        0.2499
     32 O         143.7462  143.5330  164.8521 O.2     1  UNL1       -0.2699
     33 C         144.5209  142.9356  162.0160 C.3     1  UNL1        0.1110
     34 C         144.9082  142.6369  160.5981 C.3     1  UNL1        0.0939
     35 C         141.2381  143.4948  164.1750 C.ar    1  UNL1        0.0641
     36 C         140.5277  142.3519  164.8374 C.ar    1  UNL1        0.0054
     37 C         139.0800  142.4821  165.2078 C.ar    1  UNL1        0.0002
     38 C         138.3428  143.7554  164.9159 C.ar    1  UNL1        0.0009
     39 C         139.0533  144.8984  164.2535 C.ar    1  UNL1        0.0115
     40 C         140.5010  144.7682  163.8830 C.ar    1  UNL1        0.0620
     41 CL        141.2114  145.9111  163.2207 Cl      1  UNL1       -0.0821
@<TRIPOS>BOND
     1     6     7    2
     2     7    10    1
     3    10    11    1
     4    11    12   am
     5    12    13    2
     6    12    15    1
     7    15    16   ar
     8    16    17   ar
     9    17    18   ar
    10    18    19   ar
    11    19    21    1
    12    21    22    1
    13    21    23    1
    14    21    24    1
    15    19    20   ar
    16     7     8   am
    17     1     8    1
    18     1     2    1
    19     2     3    1
    20     3     4    1
    21     4    25    1
    22    25    26    1
    23    26    27    1
    24    27    28    1
    25    28    29    1
    26    29    30    1
    27    30    31   am
    28    31    32    2
    29    31    35    1
    30    35    36   ar
    31    36    37   ar
    32    37    38   ar
    33    38    39   ar
    34    39    40   ar
    35    40    41    1
    36    30    33    1
    37    33    34    1
    38     4     5    1
    39    20    15   ar
    40     5     1    1
    41    34    27    1
    42    40    35   ar
    43    11    14    1
    44     8     9    1
@<TRIPOS>MOLECULE
*****
 41 44 0 0 0
SMALL
GASTEIGER

@<TRIPOS>ATOM
      1 C         142.9670  138.0770  160.0029 C.3     1  UNL1        0.0889
      2 C         142.5479  137.5205  158.6745 C.3     1  UNL1        0.0383
      3 C         143.0234  138.4610  157.6071 C.3     1  UNL1        0.0739
      4 N         143.7364  139.5988  158.2758 N.3     1  UNL1       -0.2700
      5 C         143.7016  139.3614  159.7565 C.3     1  UNL1        0.0919
      6 O         140.8796  139.2533  161.8082 O.2     1  UNL1       -0.2733
      7 C         141.6550  138.0459  162.2452 C.2     1  UNL1        0.2425
      8 N         142.6987  137.4577  161.3426 N.am    1  UNL1       -0.3032
      9 H         143.2077  136.6653  161.6294 H       1  UNL1        0.1495
     10 C         141.3868  137.4267  163.5848 C.3     1  UNL1        0.1759
     11 N         141.0653  138.2978  164.7629 N.am    1  UNL1       -0.2931
     12 C         142.1106  139.2151  165.3249 C.2     1  UNL1        0.2462
     13 O         143.4774  139.2613  164.7088 O.2     1  UNL1       -0.2701
     14 H         140.1682  138.2674  165.1673 H       1  UNL1        0.1502
     15 C         141.7891  140.0862  166.5030 C.ar    1  UNL1        0.0533
     16 C         142.6545  141.2698  166.8189 C.ar    1  UNL1        0.0045
     17 C         142.3330  142.1408  167.9970 C.ar    1  UNL1        0.0001
     18 C         141.1460  141.8282  168.8591 C.ar    1  UNL1        0.0039
     19 C         140.2805  140.6445  168.5432 C.ar    1  UNL1        0.0716
     20 C         140.6021  139.7735  167.3651 C.ar    1  UNL1        0.0084
     21 C         139.0935  140.3319  169.4053 C.3     1  UNL1        0.4186
     22 F         137.9065  140.0192  170.2675 F       1  UNL1       -0.1659
     23 F         139.6847  141.1490  170.5156 F       1  UNL1       -0.1659
     24 F         138.5023  139.5147  168.2951 F       1  UNL1       -0.1659
     25 C         144.3726  140.7685  157.5851 C.3     1  UNL1        0.0897
     26 C         143.8486  142.1542  157.8205 C.3     1  UNL1        0.0897
     27 N         142.6390  142.3622  158.6829 N.3     1  UNL1       -0.2686
     28 C         142.8006  142.6218  160.1514 C.3     1  UNL1        0.0939
     29 C         141.5910  142.8298  161.0138 C.3     1  UNL1        0.1110
     30 N         140.2199  142.7781  160.4076 N.am    1  UNL1       -0.2732
     31 C         139.0103  142.9861  161.2700 C.2     1  UNL1        0.2499
     32 O         137.6392  142.9345  160.6639 O.2     1  UNL1       -0.2699
     33 C         140.0584  142.5185  158.9391 C.3     1  UNL1        0.1110
     34 C         141.2679  142.3105  158.0767 C.3     1  UNL1        0.0939
     35 C         139.1719  143.2458  162.7385 C.ar    1  UNL1        0.0641
     36 C         139.1544  142.1020  163.7087 C.ar    1  UNL1        0.0054
     37 C         139.3160  142.3616  165.1772 C.ar    1  UNL1        0.0002
     38 C         139.4950  143.7651  165.6754 C.ar    1  UNL1        0.0009
     39 C         139.5124  144.9089  164.7051 C.ar    1  UNL1        0.0115
     40 C         139.3509  144.6493  163.2366 C.ar    1  UNL1        0.0620
     41 CL        139.3683  145.7930  162.2664 Cl      1  UNL1       -0.0821
@<TRIPOS>BOND
     1     6     7    2
     2     7    10    1
     3    10    11    1
     4    11    12   am
     5    12    13    2
     6    12    15    1
     7    15    16   ar
     8    16    17   ar
     9    17    18   ar
    10    18    19   ar
    11    19    21    1
    12    21    22    1
    13    21    23    1
    14    21    24    1
    15    19    20   ar
    16     7     8   am
    17     1     8    1
    18     1     2    1
    19     2     3    1
    20     3     4    1
    21     4    25    1
    22    25    26    1
    23    26    27    1
    24    27    28    1
    25    28    29    1
    26    29    30    1
    27    30    31   am
    28    31    32    2
    29    31    35    1
    30    35    36   ar
    31    36    37   ar
    32    37    38   ar
    33    38    39   ar
    34    39    40   ar
    35    40    41    1
    36    30    33    1
    37    33    34    1
    38     4     5    1
    39    20    15   ar
    40     5     1    1
    41    34    27    1
    42    40    35   ar
    43    11    14    1
    44     8     9    1
@<TRIPOS>MOLECULE
*****
 41 44 0 0 0
SMALL
GASTEIGER

@<TRIPOS>ATOM
      1 C         141.5475  144.7653  160.0622 C.3     1  UNL1        0.0889
      2 C         141.1505  145.4780  158.8035 C.3     1  UNL1        0.0383
      3 C         141.6904  144.7000  157.6403 C.3     1  UNL1        0.0739
      4 N         142.4212  143.5064  158.1801 N.3     1  UNL1       -0.2700
      5 C         142.3328  143.5468  159.6769 C.3     1  UNL1        0.0919
      6 O         138.9695  143.8993  161.3288 O.2     1  UNL1       -0.2733
      7 C         139.9283  144.7626  162.0940 C.2     1  UNL1        0.2425
      8 N         141.2172  145.1956  161.4608 N.am    1  UNL1       -0.3032
      9 H         141.8465  145.7622  161.9630 H       1  UNL1        0.1495
     10 C         139.5981  145.1929  163.4925 C.3     1  UNL1        0.1759
     11 N         139.7004  144.2122  164.6229 N.am    1  UNL1       -0.2931
     12 C         140.9879  143.4829  164.8688 C.2     1  UNL1        0.2462
     13 O         142.1731  143.7344  163.9844 O.2     1  UNL1       -0.2701
     14 H         138.9226  144.0471  165.2033 H       1  UNL1        0.1502
     15 C         141.0903  142.5022  165.9992 C.ar    1  UNL1        0.0533
     16 C         140.3699  142.7656  167.2883 C.ar    1  UNL1        0.0045
     17 C         140.4723  141.7849  168.4186 C.ar    1  UNL1        0.0001
     18 C         141.2951  140.5407  168.2599 C.ar    1  UNL1        0.0039
     19 C         142.0154  140.2773  166.9708 C.ar    1  UNL1        0.0716
     20 C         141.9130  141.2580  165.8405 C.ar    1  UNL1        0.0084
     21 C         142.8382  139.0332  166.8121 C.3     1  UNL1        0.4186
     22 F         143.6609  137.7890  166.6534 F       1  UNL1       -0.1659
     23 F         142.7242  139.1480  165.3209 F       1  UNL1       -0.1659
     24 F         142.9522  138.9183  168.3034 F       1  UNL1       -0.1659
     25 C         143.1179  142.4567  157.3660 C.3     1  UNL1        0.0897
     26 C         142.6414  141.0351  157.4094 C.3     1  UNL1        0.0897
     27 N         141.5416  140.6411  158.3502 N.3     1  UNL1       -0.2686
     28 C         141.8513  140.3619  159.7911 C.3     1  UNL1        0.0939
     29 C         140.7515  139.9679  160.7320 C.3     1  UNL1        0.1110
     30 N         139.3420  139.8532  160.2319 N.am    1  UNL1       -0.2732
     31 C         138.2422  139.4592  161.1729 C.2     1  UNL1        0.2499
     32 O         136.8326  139.3445  160.6729 O.2     1  UNL1       -0.2699
     33 C         139.0322  140.1324  158.7911 C.3     1  UNL1        0.1110
     34 C         140.1320  140.5263  157.8502 C.3     1  UNL1        0.0939
     35 C         138.5519  139.1801  162.6138 C.ar    1  UNL1        0.0641
     36 C         139.2343  137.9014  163.0000 C.ar    1  UNL1        0.0054
     37 C         139.5441  137.6222  164.4409 C.ar    1  UNL1        0.0002
     38 C         139.1715  138.6218  165.4954 C.ar    1  UNL1        0.0009
     39 C         138.4890  139.9005  165.1091 C.ar    1  UNL1        0.0115
     40 C         138.1793  140.1797  163.6682 C.ar    1  UNL1        0.0620
     41 CL        137.4969  141.4583  163.2819 Cl      1  UNL1       -0.0821
@<TRIPOS>BOND
     1     6     7    2
     2     7    10    1
     3    10    11    1
     4    11    12   am
     5    12    13    2
     6    12    15    1
     7    15    16   ar
     8    16    17   ar
     9    17    18   ar
    10    18    19   ar
    11    19    21    1
    12    21    22    1
    13    21    23    1
    14    21    24    1
    15    19    20   ar
    16     7     8   am
    17     1     8    1
    18     1     2    1
    19     2     3    1
    20     3     4    1
    21     4    25    1
    22    25    26    1
    23    26    27    1
    24    27    28    1
    25    28    29    1
    26    29    30    1
    27    30    31   am
    28    31    32    2
    29    31    35    1
    30    35    36   ar
    31    36    37   ar
    32    37    38   ar
    33    38    39   ar
    34    39    40   ar
    35    40    41    1
    36    30    33    1
    37    33    34    1
    38     4     5    1
    39    20    15   ar
    40     5     1    1
    41    34    27    1
    42    40    35   ar
    43    11    14    1
    44     8     9    1
@<TRIPOS>MOLECULE
*****
 41 44 0 0 0
SMALL
GASTEIGER

@<TRIPOS>ATOM
      1 C         143.7525  139.4905  159.8214 C.3     1  UNL1        0.0889
      2 C         143.0257  138.4994  158.9614 C.3     1  UNL1        0.0383
      3 C         142.5807  139.2056  157.7152 C.3     1  UNL1        0.0739
      4 N         143.0324  140.6332  157.8049 N.3     1  UNL1       -0.2700
      5 C         143.7566  140.8093  159.1067 C.3     1  UNL1        0.0919
      6 O         142.3428  140.3490  162.3266 O.2     1  UNL1       -0.2733
      7 C         143.6623  139.6410  162.4136 C.2     1  UNL1        0.2425
      8 N         144.3672  139.2118  161.1611 N.am    1  UNL1       -0.3032
      9 H         145.2333  138.7471  161.2182 H       1  UNL1        0.1495
     10 C         144.2771  139.3623  163.7531 C.3     1  UNL1        0.1759
     11 N         143.4951  139.6239  165.0063 N.am    1  UNL1       -0.2931
     12 C         143.3423  141.0264  165.5159 C.2     1  UNL1        0.2462
     13 O         143.9713  142.1672  164.7724 O.2     1  UNL1       -0.2701
     14 H         143.0823  138.8751  165.4942 H       1  UNL1        0.1502
     15 C         142.5603  141.2880  166.7690 C.ar    1  UNL1        0.0533
     16 C         143.0645  142.2807  167.7741 C.ar    1  UNL1        0.0045
     17 C         142.2826  142.5422  169.0272 C.ar    1  UNL1        0.0001
     18 C         140.9965  141.8111  169.2751 C.ar    1  UNL1        0.0039
     19 C         140.4924  140.8184  168.2700 C.ar    1  UNL1        0.0716
     20 C         141.2743  140.5568  167.0169 C.ar    1  UNL1        0.0084
     21 C         139.2063  140.0872  168.5179 C.3     1  UNL1        0.4186
     22 F         137.9202  139.3561  168.7658 F       1  UNL1       -0.1659
     23 F         139.0745  140.7698  169.8471 F       1  UNL1       -0.1659
     24 F         139.3381  139.4047  167.1887 F       1  UNL1       -0.1659
     25 C         142.8006  141.6978  156.7739 C.3     1  UNL1        0.0897
     26 C         141.5158  142.4718  156.7709 C.3     1  UNL1        0.0897
     27 N         141.0865  143.2174  157.9996 N.3     1  UNL1       -0.2686
     28 C         140.8115  142.4716  159.2716 C.3     1  UNL1        0.0939
     29 C         140.3822  143.2173  160.5004 C.3     1  UNL1        0.1110
     30 N         140.2280  144.7087  160.4570 N.am    1  UNL1       -0.2732
     31 C         139.7987  145.4543  161.6858 C.2     1  UNL1        0.2499
     32 O         139.6444  146.9458  161.6425 O.2     1  UNL1       -0.2699
     33 C         140.5030  145.4545  159.1850 C.3     1  UNL1        0.1110
     34 C         140.9322  144.7089  157.9562 C.3     1  UNL1        0.0939
     35 C         139.5236  144.7085  162.9579 C.ar    1  UNL1        0.0641
     36 C         138.1443  144.1920  163.2412 C.ar    1  UNL1        0.0054
     37 C         137.8692  143.4462  164.5132 C.ar    1  UNL1        0.0002
     38 C         138.9737  143.2169  165.5019 C.ar    1  UNL1        0.0009
     39 C         140.3532  143.7335  165.2186 C.ar    1  UNL1        0.0115
     40 C         140.6282  144.4793  163.9465 C.ar    1  UNL1        0.0620
     41 CL        142.0076  144.9958  163.6632 Cl      1  UNL1       -0.0821
@<TRIPOS>BOND
     1     6     7    2
     2     7    10    1
     3    10    11    1
     4    11    12   am
     5    12    13    2
     6    12    15    1
     7    15    16   ar
     8    16    17   ar
     9    17    18   ar
    10    18    19   ar
    11    19    21    1
    12    21    22    1
    13    21    23    1
    14    21    24    1
    15    19    20   ar
    16     7     8   am
    17     1     8    1
    18     1     2    1
    19     2     3    1
    20     3     4    1
    21     4    25    1
    22    25    26    1
    23    26    27    1
    24    27    28    1
    25    28    29    1
    26    29    30    1
    27    30    31   am
    28    31    32    2
    29    31    35    1
    30    35    36   ar
    31    36    37   ar
    32    37    38   ar
    33    38    39   ar
    34    39    40   ar
    35    40    41    1
    36    30    33    1
    37    33    34    1
    38     4     5    1
    39    20    15   ar
    40     5     1    1
    41    34    27    1
    42    40    35   ar
    43    11    14    1
    44     8     9    1
@<TRIPOS>MOLECULE
*****
 41 44 0 0 0
SMALL
GASTEIGER

@<TRIPOS>ATOM
      1 C         141.4200  144.7934  159.7539 C.3     1  UNL1        0.0889
      2 C         141.0696  145.4287  158.4410 C.3     1  UNL1        0.0383
      3 C         141.6206  144.5642  157.3460 C.3     1  UNL1        0.0739
      4 N         142.3116  143.3946  157.9821 N.3     1  UNL1       -0.2700
      5 C         142.1877  143.5363  159.4702 C.3     1  UNL1        0.0919
      6 O         138.9909  143.7593  161.1788 O.2     1  UNL1       -0.2733
      7 C         139.8506  144.8053  161.8244 C.2     1  UNL1        0.2425
      8 N         141.0651  145.3223  161.1120 N.am    1  UNL1       -0.3032
      9 H         141.6294  146.0089  161.5357 H       1  UNL1        0.1495
     10 C         139.4958  145.3342  163.1824 C.3     1  UNL1        0.1759
     11 N         139.7019  144.4794  164.3977 N.am    1  UNL1       -0.2931
     12 C         140.7700  143.4262  164.4014 C.2     1  UNL1        0.2462
     13 O         141.6320  143.2278  163.1900 O.2     1  UNL1       -0.2701
     14 H         139.1362  144.6095  165.1928 H       1  UNL1        0.1502
     15 C         140.9761  142.5713  165.6167 C.ar    1  UNL1        0.0533
     16 C         141.7952  141.3183  165.5221 C.ar    1  UNL1        0.0045
     17 C         142.0013  140.4635  166.7373 C.ar    1  UNL1        0.0001
     18 C         141.3882  140.8617  168.0471 C.ar    1  UNL1        0.0039
     19 C         140.5691  142.1147  168.1417 C.ar    1  UNL1        0.0716
     20 C         140.3630  142.9695  166.9265 C.ar    1  UNL1        0.0084
     21 C         139.9560  142.5129  169.4515 C.3     1  UNL1        0.4186
     22 F         139.3430  142.9111  170.7613 F       1  UNL1       -0.1659
     23 F         139.2970  141.1691  169.5515 F       1  UNL1       -0.1659
     24 F         140.6151  143.8566  169.3515 F       1  UNL1       -0.1659
     25 C         143.0049  142.2792  157.2573 C.3     1  UNL1        0.0897
     26 C         142.7906  140.8582  157.6871 C.3     1  UNL1        0.0897
     27 N         141.6362  140.5106  158.5796 N.3     1  UNL1       -0.2686
     28 C         141.8659  140.2650  160.0414 C.3     1  UNL1        0.0939
     29 C         140.7115  139.9173  160.9340 C.3     1  UNL1        0.1110
     30 N         139.3275  139.8153  160.3645 N.am    1  UNL1       -0.2732
     31 C         138.1731  139.4676  161.2571 C.2     1  UNL1        0.2499
     32 O         136.7891  139.3656  160.6877 O.2     1  UNL1       -0.2699
     33 C         139.0979  140.0609  158.9027 C.3     1  UNL1        0.1110
     34 C         140.2522  140.4085  158.0102 C.3     1  UNL1        0.0939
     35 C         138.4027  139.2220  162.7189 C.ar    1  UNL1        0.0641
     36 C         138.9342  137.8983  163.1826 C.ar    1  UNL1        0.0054
     37 C         139.1638  137.6527  164.6444 C.ar    1  UNL1        0.0002
     38 C         138.8619  138.7309  165.6425 C.ar    1  UNL1        0.0009
     39 C         138.3304  140.0547  165.1788 C.ar    1  UNL1        0.0115
     40 C         138.1008  140.3003  163.7170 C.ar    1  UNL1        0.0620
     41 CL        137.5693  141.6241  163.2533 Cl      1  UNL1       -0.0821
@<TRIPOS>BOND
     1     6     7    2
     2     7    10    1
     3    10    11    1
     4    11    12   am
     5    12    13    2
     6    12    15    1
     7    15    16   ar
     8    16    17   ar
     9    17    18   ar
    10    18    19   ar
    11    19    21    1
    12    21    22    1
    13    21    23    1
    14    21    24    1
    15    19    20   ar
    16     7     8   am
    17     1     8    1
    18     1     2    1
    19     2     3    1
    20     3     4    1
    21     4    25    1
    22    25    26    1
    23    26    27    1
    24    27    28    1
    25    28    29    1
    26    29    30    1
    27    30    31   am
    28    31    32    2
    29    31    35    1
    30    35    36   ar
    31    36    37   ar
    32    37    38   ar
    33    38    39   ar
    34    39    40   ar
    35    40    41    1
    36    30    33    1
    37    33    34    1
    38     4     5    1
    39    20    15   ar
    40     5     1    1
    41    34    27    1
    42    40    35   ar
    43    11    14    1
    44     8     9    1
@<TRIPOS>MOLECULE
*****
 41 44 0 0 0
SMALL
GASTEIGER

@<TRIPOS>ATOM
      1 C         144.4265  142.2305  159.0741 C.3     1  UNL1        0.0889
      2 C         145.4143  142.3923  157.9570 C.3     1  UNL1        0.0383
      3 C         145.1758  141.2933  156.9644 C.3     1  UNL1        0.0739
      4 N         144.0405  140.4522  157.4681 N.3     1  UNL1       -0.2700
      5 C         143.5774  141.0314  158.7720 C.3     1  UNL1        0.0919
      6 O         144.9994  141.1233  161.8029 O.2     1  UNL1       -0.2733
      7 C         144.5949  142.5592  161.6459 C.2     1  UNL1        0.2425
      8 N         144.3085  143.1128  160.2815 N.am    1  UNL1       -0.3032
      9 H         144.0430  144.0552  160.1785 H       1  UNL1        0.1495
     10 C         144.4769  143.4414  162.8532 C.3     1  UNL1        0.1759
     11 N         144.3682  142.8322  164.2196 N.am    1  UNL1       -0.2931
     12 C         143.0725  142.2246  164.6690 C.2     1  UNL1        0.2462
     13 O         141.8855  142.2262  163.7520 O.2     1  UNL1       -0.2701
     14 H         145.1473  142.8312  164.8215 H       1  UNL1        0.1502
     15 C         142.9639  141.6154  166.0354 C.ar    1  UNL1        0.0533
     16 C         142.7079  140.1448  166.1827 C.ar    1  UNL1        0.0045
     17 C         142.5993  139.5356  167.5491 C.ar    1  UNL1        0.0001
     18 C         142.7465  140.3971  168.7682 C.ar    1  UNL1        0.0039
     19 C         143.0024  141.8677  168.6209 C.ar    1  UNL1        0.0716
     20 C         143.1111  142.4769  167.2545 C.ar    1  UNL1        0.0084
     21 C         143.1497  142.7292  169.8400 C.3     1  UNL1        0.4186
     22 F         143.2970  143.5907  171.0591 F       1  UNL1       -0.1659
     23 F         144.5798  142.2966  169.9730 F       1  UNL1       -0.1659
     24 F         141.7196  143.1618  169.7071 F       1  UNL1       -0.1659
     25 C         143.4687  139.2440  156.7874 C.3     1  UNL1        0.0897
     26 C         142.9026  138.1206  157.6043 C.3     1  UNL1        0.0897
     27 N         141.7774  138.3820  158.5612 N.3     1  UNL1       -0.2686
     28 C         142.0094  138.2736  160.0392 C.3     1  UNL1        0.0939
     29 C         140.8842  138.5350  160.9962 C.3     1  UNL1        0.1110
     30 N         139.5272  138.9049  160.4751 N.am    1  UNL1       -0.2732
     31 C         138.4020  139.1664  161.4321 C.2     1  UNL1        0.2499
     32 O         137.0449  139.5363  160.9110 O.2     1  UNL1       -0.2699
     33 C         139.2952  139.0134  158.9971 C.3     1  UNL1        0.1110
     34 C         140.4203  138.7519  158.0402 C.3     1  UNL1        0.0939
     35 C         138.6340  139.0579  162.9101 C.ar    1  UNL1        0.0641
     36 C         138.8036  137.7100  163.5457 C.ar    1  UNL1        0.0054
     37 C         139.0356  137.6015  165.0236 C.ar    1  UNL1        0.0002
     38 C         139.0980  138.8411  165.8660 C.ar    1  UNL1        0.0009
     39 C         138.9283  140.1891  165.2303 C.ar    1  UNL1        0.0115
     40 C         138.6963  140.2976  163.7523 C.ar    1  UNL1        0.0620
     41 CL        138.5267  141.6455  163.1167 Cl      1  UNL1       -0.0821
@<TRIPOS>BOND
     1     6     7    2
     2     7    10    1
     3    10    11    1
     4    11    12   am
     5    12    13    2
     6    12    15    1
     7    15    16   ar
     8    16    17   ar
     9    17    18   ar
    10    18    19   ar
    11    19    21    1
    12    21    22    1
    13    21    23    1
    14    21    24    1
    15    19    20   ar
    16     7     8   am
    17     1     8    1
    18     1     2    1
    19     2     3    1
    20     3     4    1
    21     4    25    1
    22    25    26    1
    23    26    27    1
    24    27    28    1
    25    28    29    1
    26    29    30    1
    27    30    31   am
    28    31    32    2
    29    31    35    1
    30    35    36   ar
    31    36    37   ar
    32    37    38   ar
    33    38    39   ar
    34    39    40   ar
    35    40    41    1
    36    30    33    1
    37    33    34    1
    38     4     5    1
    39    20    15   ar
    40     5     1    1
    41    34    27    1
    42    40    35   ar
    43    11    14    1
    44     8     9    1
@<TRIPOS>MOLECULE
*****
 41 44 0 0 0
SMALL
GASTEIGER

@<TRIPOS>ATOM
      1 C         139.8151  139.0091  158.7510 C.3     1  UNL1        0.0889
      2 C         139.8839  138.3502  157.4053 C.3     1  UNL1        0.0383
      3 C         140.1731  139.4103  156.3843 C.3     1  UNL1        0.0739
      4 N         140.2830  140.7246  157.0991 N.3     1  UNL1       -0.2700
      5 C         140.0617  140.4765  158.5618 C.3     1  UNL1        0.0919
      6 O         137.4639  139.8305  160.4236 O.2     1  UNL1       -0.2733
      7 C         138.3711  138.7321  160.8931 C.2     1  UNL1        0.2425
      8 N         139.5467  138.3214  160.0569 N.am    1  UNL1       -0.3032
      9 H         140.1421  137.6004  160.3650 H       1  UNL1        0.1495
     10 C         138.1027  138.0443  162.1988 C.3     1  UNL1        0.1759
     11 N         138.7903  138.5112  163.4476 N.am    1  UNL1       -0.2931
     12 C         140.2116  138.1134  163.7147 C.2     1  UNL1        0.2462
     13 O         140.9456  137.2488  162.7330 O.2     1  UNL1       -0.2701
     14 H         138.3085  139.0787  164.0919 H       1  UNL1        0.1502
     15 C         140.8991  138.5803  164.9635 C.ar    1  UNL1        0.0533
     16 C         142.3744  138.3674  165.1318 C.ar    1  UNL1        0.0045
     17 C         143.0618  138.8343  166.3806 C.ar    1  UNL1        0.0001
     18 C         142.2740  139.5140  167.4610 C.ar    1  UNL1        0.0039
     19 C         140.7988  139.7269  167.2927 C.ar    1  UNL1        0.0716
     20 C         140.1114  139.2600  166.0440 C.ar    1  UNL1        0.0084
     21 C         140.0110  140.4066  168.3732 C.3     1  UNL1        0.4186
     22 F         139.2232  141.0863  169.4536 F       1  UNL1       -0.1659
     23 F         141.1794  141.3017  168.6620 F       1  UNL1       -0.1659
     24 F         138.8425  139.5114  168.0844 F       1  UNL1       -0.1659
     25 C         140.5648  142.0534  156.4629 C.3     1  UNL1        0.0897
     26 C         141.6665  142.9211  156.9949 C.3     1  UNL1        0.0897
     27 N         141.6094  143.4244  158.4068 N.3     1  UNL1       -0.2686
     28 C         142.4360  142.7664  159.4716 C.3     1  UNL1        0.0939
     29 C         142.3788  143.2697  160.8836 C.3     1  UNL1        0.1110
     30 N         141.4950  144.4309  161.2306 N.am    1  UNL1       -0.2732
     31 C         141.4379  144.9342  162.6425 C.2     1  UNL1        0.2499
     32 O         140.5541  146.0955  162.9896 O.2     1  UNL1       -0.2699
     33 C         140.6684  145.0889  160.1658 C.3     1  UNL1        0.1110
     34 C         140.7256  144.5856  158.7539 C.3     1  UNL1        0.0939
     35 C         142.2644  144.2762  163.7073 C.ar    1  UNL1        0.0641
     36 C         143.6529  144.7682  163.9900 C.ar    1  UNL1        0.0054
     37 C         144.4795  144.1102  165.0548 C.ar    1  UNL1        0.0002
     38 C         143.9175  142.9602  165.8369 C.ar    1  UNL1        0.0009
     39 C         142.5290  142.4682  165.5541 C.ar    1  UNL1        0.0115
     40 C         141.7024  143.1262  164.4894 C.ar    1  UNL1        0.0620
     41 CL        140.3140  142.6342  164.2067 Cl      1  UNL1       -0.0821
@<TRIPOS>BOND
     1     6     7    2
     2     7    10    1
     3    10    11    1
     4    11    12   am
     5    12    13    2
     6    12    15    1
     7    15    16   ar
     8    16    17   ar
     9    17    18   ar
    10    18    19   ar
    11    19    21    1
    12    21    22    1
    13    21    23    1
    14    21    24    1
    15    19    20   ar
    16     7     8   am
    17     1     8    1
    18     1     2    1
    19     2     3    1
    20     3     4    1
    21     4    25    1
    22    25    26    1
    23    26    27    1
    24    27    28    1
    25    28    29    1
    26    29    30    1
    27    30    31   am
    28    31    32    2
    29    31    35    1
    30    35    36   ar
    31    36    37   ar
    32    37    38   ar
    33    38    39   ar
    34    39    40   ar
    35    40    41    1
    36    30    33    1
    37    33    34    1
    38     4     5    1
    39    20    15   ar
    40     5     1    1
    41    34    27    1
    42    40    35   ar
    43    11    14    1
    44     8     9    1
@<TRIPOS>MOLECULE
*****
 41 44 0 0 0
SMALL
GASTEIGER

@<TRIPOS>ATOM
      1 C         142.4601  138.1515  160.8998 C.3     1  UNL1        0.0889
      2 C         143.2161  137.9491  159.6202 C.3     1  UNL1        0.0383
      3 C         142.2404  138.0466  158.4851 C.3     1  UNL1        0.0739
      4 N         140.8814  138.3094  159.0632 N.3     1  UNL1       -0.2700
      5 C         141.0173  138.3742  160.5556 C.3     1  UNL1        0.0919
      6 O         144.2324  140.3957  161.8070 O.2     1  UNL1       -0.2733
      7 C         143.9306  139.2564  162.7348 C.2     1  UNL1        0.2425
      8 N         143.0445  138.1343  162.2813 N.am    1  UNL1       -0.3032
      9 H         142.8464  137.3866  162.8903 H       1  UNL1        0.1495
     10 C         144.5149  139.2392  164.1162 C.3     1  UNL1        0.1759
     11 N         143.8136  139.9494  165.2361 N.am    1  UNL1       -0.2931
     12 C         142.5541  139.3766  165.8152 C.2     1  UNL1        0.2462
     13 O         141.9957  138.0937  165.2746 O.2     1  UNL1       -0.2701
     14 H         144.1801  140.7914  165.5909 H       1  UNL1        0.1502
     15 C         141.8529  140.0868  166.9351 C.ar    1  UNL1        0.0533
     16 C         140.3880  139.8614  167.1654 C.ar    1  UNL1        0.0045
     17 C         139.6868  140.5715  168.2852 C.ar    1  UNL1        0.0001
     18 C         140.4506  141.5071  169.1747 C.ar    1  UNL1        0.0039
     19 C         141.9156  141.7325  168.9445 C.ar    1  UNL1        0.0716
     20 C         142.6167  141.0224  167.8246 C.ar    1  UNL1        0.0084
     21 C         142.6794  142.6681  169.8340 C.3     1  UNL1        0.4186
     22 F         143.4432  143.6037  170.7235 F       1  UNL1       -0.1659
     23 F         143.8616  141.7461  169.7886 F       1  UNL1       -0.1659
     24 F         141.4971  143.5902  169.8793 F       1  UNL1       -0.1659
     25 C         139.6099  138.4777  158.2854 C.3     1  UNL1        0.0897
     26 C         138.9892  139.8363  158.1478 C.3     1  UNL1        0.0897
     27 N         139.3727  140.9353  159.0939 N.3     1  UNL1       -0.2686
     28 C         138.9794  140.8520  160.5390 C.3     1  UNL1        0.0939
     29 C         139.3628  141.9511  161.4852 C.3     1  UNL1        0.1110
     30 N         140.1395  143.1333  160.9861 N.am    1  UNL1       -0.2732
     31 C         140.5229  144.2324  161.9323 C.2     1  UNL1        0.2499
     32 O         141.2996  145.4146  161.4333 O.2     1  UNL1       -0.2699
     33 C         140.5328  143.2166  159.5410 C.3     1  UNL1        0.1110
     34 C         140.1494  142.1176  158.5949 C.3     1  UNL1        0.0939
     35 C         140.1297  144.1491  163.3774 C.ar    1  UNL1        0.0641
     36 C         138.8851  144.8355  163.8568 C.ar    1  UNL1        0.0054
     37 C         138.4919  144.7522  165.3019 C.ar    1  UNL1        0.0002
     38 C         139.3432  143.9825  166.2676 C.ar    1  UNL1        0.0009
     39 C         140.5878  143.2961  165.7883 C.ar    1  UNL1        0.0115
     40 C         140.9811  143.3793  164.3432 C.ar    1  UNL1        0.0620
     41 CL        142.2256  142.6929  163.8638 Cl      1  UNL1       -0.0821
@<TRIPOS>BOND
     1     6     7    2
     2     7    10    1
     3    10    11    1
     4    11    12   am
     5    12    13    2
     6    12    15    1
     7    15    16   ar
     8    16    17   ar
     9    17    18   ar
    10    18    19   ar
    11    19    21    1
    12    21    22    1
    13    21    23    1
    14    21    24    1
    15    19    20   ar
    16     7     8   am
    17     1     8    1
    18     1     2    1
    19     2     3    1
    20     3     4    1
    21     4    25    1
    22    25    26    1
    23    26    27    1
    24    27    28    1
    25    28    29    1
    26    29    30    1
    27    30    31   am
    28    31    32    2
    29    31    35    1
    30    35    36   ar
    31    36    37   ar
    32    37    38   ar
    33    38    39   ar
    34    39    40   ar
    35    40    41    1
    36    30    33    1
    37    33    34    1
    38     4     5    1
    39    20    15   ar
    40     5     1    1
    41    34    27    1
    42    40    35   ar
    43    11    14    1
    44     8     9    1
@<TRIPOS>MOLECULE
*****
 41 44 0 0 0
SMALL
GASTEIGER

@<TRIPOS>ATOM
      1 C         138.5382  141.9029  157.4260 C.3     1  UNL1        0.0889
      2 C         137.6559  142.8403  156.6561 C.3     1  UNL1        0.0383
      3 C         138.5361  143.7440  155.8446 C.3     1  UNL1        0.0739
      4 N         139.9624  143.3651  156.1129 N.3     1  UNL1       -0.2700
      5 C         139.9637  142.2272  157.0902 C.3     1  UNL1        0.0919
      6 O         138.6755  142.3448  160.3901 O.2     1  UNL1       -0.2733
      7 C         138.1448  141.0505  159.8485 C.2     1  UNL1        0.2425
      8 N         138.0762  140.8296  158.3665 N.am    1  UNL1       -0.3032
      9 H         137.7279  139.9801  158.0111 H       1  UNL1        0.1495
     10 C         137.6828  139.9772  160.7890 C.3     1  UNL1        0.1759
     11 N         138.3879  139.7715  162.0969 N.am    1  UNL1       -0.2931
     12 C         138.0351  140.6222  163.2810 C.2     1  UNL1        0.2462
     13 O         136.9773  141.6785  163.1571 O.2     1  UNL1       -0.2701
     14 H         139.0821  139.0783  162.1782 H       1  UNL1        0.1502
     15 C         138.7402  140.4165  164.5889 C.ar    1  UNL1        0.0533
     16 C         138.1038  139.5824  165.6609 C.ar    1  UNL1        0.0045
     17 C         138.8089  139.3768  166.9688 C.ar    1  UNL1        0.0001
     18 C         140.1502  140.0053  167.2047 C.ar    1  UNL1        0.0039
     19 C         140.7866  140.8395  166.1327 C.ar    1  UNL1        0.0716
     20 C         140.0815  141.0451  164.8248 C.ar    1  UNL1        0.0084
     21 C         142.1280  141.4680  166.3685 C.3     1  UNL1        0.4186
     22 F         143.4693  142.0966  166.6044 F       1  UNL1       -0.1659
     23 F         142.7203  140.1119  166.6139 F       1  UNL1       -0.1659
     24 F         141.5357  142.8241  166.1232 F       1  UNL1       -0.1659
     25 C         141.1746  144.0107  155.5097 C.3     1  UNL1        0.0897
     26 C         142.1754  144.6975  156.3910 C.3     1  UNL1        0.0897
     27 N         142.2090  144.4003  157.8609 N.3     1  UNL1       -0.2686
     28 C         143.1778  143.3899  158.3998 C.3     1  UNL1        0.0939
     29 C         143.2114  143.0927  159.8698 C.3     1  UNL1        0.1110
     30 N         142.2761  143.8060  160.8006 N.am    1  UNL1       -0.2732
     31 C         142.3097  143.5088  162.2706 C.2     1  UNL1        0.2499
     32 O         141.3745  144.2221  163.2015 O.2     1  UNL1       -0.2699
     33 C         141.3073  144.8164  160.2617 C.3     1  UNL1        0.1110
     34 C         141.2737  145.1136  158.7918 C.3     1  UNL1        0.0939
     35 C         143.2785  142.4984  162.8095 C.ar    1  UNL1        0.0641
     36 C         144.5257  142.9533  163.5078 C.ar    1  UNL1        0.0054
     37 C         145.4945  141.9429  164.0467 C.ar    1  UNL1        0.0002
     38 C         145.2161  140.4776  163.8873 C.ar    1  UNL1        0.0009
     39 C         143.9689  140.0227  163.1890 C.ar    1  UNL1        0.0115
     40 C         143.0000  141.0331  162.6501 C.ar    1  UNL1        0.0620
     41 CL        141.7529  140.5783  161.9519 Cl      1  UNL1       -0.0821
@<TRIPOS>BOND
     1     6     7    2
     2     7    10    1
     3    10    11    1
     4    11    12   am
     5    12    13    2
     6    12    15    1
     7    15    16   ar
     8    16    17   ar
     9    17    18   ar
    10    18    19   ar
    11    19    21    1
    12    21    22    1
    13    21    23    1
    14    21    24    1
    15    19    20   ar
    16     7     8   am
    17     1     8    1
    18     1     2    1
    19     2     3    1
    20     3     4    1
    21     4    25    1
    22    25    26    1
    23    26    27    1
    24    27    28    1
    25    28    29    1
    26    29    30    1
    27    30    31   am
    28    31    32    2
    29    31    35    1
    30    35    36   ar
    31    36    37   ar
    32    37    38   ar
    33    38    39   ar
    34    39    40   ar
    35    40    41    1
    36    30    33    1
    37    33    34    1
    38     4     5    1
    39    20    15   ar
    40     5     1    1
    41    34    27    1
    42    40    35   ar
    43    11    14    1
    44     8     9    1
