@<TRIPOS>MOLECULE
*****
 37 40 0 0 0
SMALL
GASTEIGER

@<TRIPOS>ATOM
      1 C         139.0839  142.9115  159.9839 C.ar    1  UNL1        0.0690
      2 C         138.1121  141.9383  159.3852 C.ar    1  UNL1        0.0275
      3 C         138.0554  142.1897  157.9075 C.ar    1  UNL1        0.1140
      4 N         138.9922  143.3183  157.5930 N.ar    1  UNL1       -0.3223
      5 C         139.6278  143.7644  158.8763 C.ar    1  UNL1        0.0717
      6 C         140.6197  144.8895  158.8705 C.3     1  UNL1        0.1857
      7 O         140.9760  145.5686  157.5814 O.3     1  UNL1       -0.3454
      8 C         140.3403  145.1225  156.2981 C.3     1  UNL1        0.1671
      9 C         139.3484  143.9973  156.3039 C.3     1  UNL1        0.1379
     10 N         139.5502  144.3597  162.0900 N.am    1  UNL1       -0.2987
     11 C         139.4479  143.0138  161.4355 C.2     1  UNL1        0.2472
     12 O         139.7096  141.7705  162.2326 O.2     1  UNL1       -0.2701
     13 H         139.3785  145.1758  161.5668 H       1  UNL1        0.1500
     14 C         139.9142  144.4621  163.5415 C.3     1  UNL1        0.0943
     15 C         141.3364  144.2616  163.9741 C.ar    1  UNL1       -0.0045
     16 C         142.3936  145.2385  163.5520 C.ar    1  UNL1       -0.0027
     17 C         143.8158  145.0379  163.9845 C.ar    1  UNL1       -0.0003
     18 C         144.1809  143.8605  164.8391 C.ar    1  UNL1       -0.0000
     19 C         143.1237  142.8836  165.2612 C.ar    1  UNL1       -0.0003
     20 C         141.7015  143.0842  164.8287 C.ar    1  UNL1       -0.0027
     21 C         137.6689  143.8589  164.7009 C.3     1  UNL1        0.0021
     22 C         138.8560  144.7650  164.5605 C.3     1  UNL1        0.0241
     23 C         137.2104  141.4436  156.9180 C.2     1  UNL1        0.2619
     24 O         137.5422  140.0231  156.5687 O.2     1  UNL1       -0.2686
     25 N         136.0334  142.1180  156.2776 N.am    1  UNL1       -0.2975
     26 H         135.8156  143.0503  156.5068 H       1  UNL1        0.1500
     27 C         135.1883  141.3719  155.2881 C.3     1  UNL1        0.0959
     28 C         133.9255  140.6985  155.7374 C.ar    1  UNL1        0.0149
     29 C         133.9748  139.3065  156.2940 C.ar    1  UNL1        0.0036
     30 C         132.7120  138.6332  156.7432 C.ar    1  UNL1        0.0574
     31 C         131.3998  139.3519  156.6359 C.ar    1  UNL1        0.2250
     32 N         131.3504  140.7439  156.0793 N.ar    1  UNL1       -0.2104
     33 C         132.6132  141.4172  155.6300 C.ar    1  UNL1        0.0993
     34 O         130.1369  138.6786  157.0851 O.3     1  UNL1       -0.4561
     35 C         129.9486  138.3254  158.5307 C.3     1  UNL1        0.2542
     36 C         135.6062  141.2991  153.8493 C.3     1  UNL1        0.0242
     37 C         135.8589  139.9667  153.2083 C.3     1  UNL1        0.0021
@<TRIPOS>BOND
     1    21    22    1
     2    14    22    1
     3    14    10    1
     4    10    11   am
     5    11    12    2
     6    11     1    1
     7     1     2   ar
     8     2     3   ar
     9     3    23    1
    10    23    24    2
    11    23    25   am
    12    25    27    1
    13    27    36    1
    14    36    37    1
    15    27    28    1
    16    28    29   ar
    17    29    30   ar
    18    30    31   ar
    19    31    34    1
    20    34    35    1
    21    31    32   ar
    22    32    33   ar
    23     3     4   ar
    24     4     5   ar
    25     5     6    1
    26     6     7    1
    27     7     8    1
    28     8     9    1
    29    14    15    1
    30    15    16   ar
    31    16    17   ar
    32    17    18   ar
    33    18    19   ar
    34    19    20   ar
    35     5     1   ar
    36    20    15   ar
    37    33    28   ar
    38     9     4    1
    39    10    13    1
    40    25    26    1
@<TRIPOS>MOLECULE
*****
 37 40 0 0 0
SMALL
GASTEIGER

@<TRIPOS>ATOM
      1 C         139.2025  142.8770  160.1551 C.ar    1  UNL1        0.0690
      2 C         138.2724  141.8545  159.5724 C.ar    1  UNL1        0.0275
      3 C         138.1590  142.1169  158.0999 C.ar    1  UNL1        0.1140
      4 N         139.0189  143.3015  157.7725 N.ar    1  UNL1       -0.3223
      5 C         139.6639  143.7713  159.0427 C.ar    1  UNL1        0.0717
      6 C         140.5879  144.9527  159.0222 C.3     1  UNL1        0.1857
      7 O         140.8670  145.6642  157.7316 O.3     1  UNL1       -0.3454
      8 C         140.2221  145.1944  156.4614 C.3     1  UNL1        0.1671
      9 C         139.2980  144.0131  156.4819 C.3     1  UNL1        0.1379
     10 N         138.5482  143.0708  162.6620 N.am    1  UNL1       -0.2987
     11 C         139.6012  142.9861  161.5970 C.2     1  UNL1        0.2472
     12 O         141.0528  143.0106  161.9740 O.2     1  UNL1       -0.2701
     13 H         137.5954  143.0548  162.4146 H       1  UNL1        0.1500
     14 C         138.9470  143.1799  164.1039 C.3     1  UNL1        0.0943
     15 C         139.0175  141.9487  164.9578 C.ar    1  UNL1       -0.0045
     16 C         138.1359  140.7738  164.6540 C.ar    1  UNL1       -0.0027
     17 C         138.2064  139.5426  165.5079 C.ar    1  UNL1       -0.0003
     18 C         139.1586  139.4863  166.6656 C.ar    1  UNL1       -0.0000
     19 C         140.0402  140.6612  166.9694 C.ar    1  UNL1       -0.0003
     20 C         139.9697  141.8925  166.1155 C.ar    1  UNL1       -0.0027
     21 C         138.4097  145.0973  165.7727 C.3     1  UNL1        0.0021
     22 C         139.2751  144.5203  164.6919 C.3     1  UNL1        0.0241
     23 C         137.3310  141.3324  157.1258 C.2     1  UNL1        0.2619
     24 O         137.6523  139.8920  156.8578 O.2     1  UNL1       -0.2686
     25 N         136.1815  141.9883  156.4197 N.am    1  UNL1       -0.2975
     26 H         135.9705  142.9337  156.5956 H       1  UNL1        0.1500
     27 C         135.3534  141.2038  155.4456 C.3     1  UNL1        0.0959
     28 C         134.0062  140.6855  155.8533 C.ar    1  UNL1        0.0149
     29 C         133.8990  139.4139  156.6417 C.ar    1  UNL1        0.0036
     30 C         132.5517  138.8956  157.0495 C.ar    1  UNL1        0.0574
     31 C         131.3117  139.6488  156.6688 C.ar    1  UNL1        0.2250
     32 N         131.4189  140.9204  155.8803 N.ar    1  UNL1       -0.2104
     33 C         132.7661  141.4387  155.4726 C.ar    1  UNL1        0.0993
     34 O         129.9644  139.1305  157.0765 O.3     1  UNL1       -0.4561
     35 C         129.5498  137.7397  156.6976 C.3     1  UNL1        0.2542
     36 C         135.8727  140.9376  154.0638 C.3     1  UNL1        0.0242
     37 C         136.0264  139.5263  153.5793 C.3     1  UNL1        0.0021
@<TRIPOS>BOND
     1    21    22    1
     2    14    22    1
     3    14    10    1
     4    10    11   am
     5    11    12    2
     6    11     1    1
     7     1     2   ar
     8     2     3   ar
     9     3    23    1
    10    23    24    2
    11    23    25   am
    12    25    27    1
    13    27    36    1
    14    36    37    1
    15    27    28    1
    16    28    29   ar
    17    29    30   ar
    18    30    31   ar
    19    31    34    1
    20    34    35    1
    21    31    32   ar
    22    32    33   ar
    23     3     4   ar
    24     4     5   ar
    25     5     6    1
    26     6     7    1
    27     7     8    1
    28     8     9    1
    29    14    15    1
    30    15    16   ar
    31    16    17   ar
    32    17    18   ar
    33    18    19   ar
    34    19    20   ar
    35     5     1   ar
    36    20    15   ar
    37    33    28   ar
    38     9     4    1
    39    10    13    1
    40    25    26    1
@<TRIPOS>MOLECULE
*****
 37 40 0 0 0
SMALL
GASTEIGER

@<TRIPOS>ATOM
      1 C         140.2586  139.4537  160.4127 C.ar    1  UNL1        0.0690
      2 C         141.2745  138.4951  159.8659 C.ar    1  UNL1        0.0275
      3 C         141.0581  138.3849  158.3857 C.ar    1  UNL1        0.1140
      4 N         139.9085  139.2755  158.0177 N.ar    1  UNL1       -0.3223
      5 C         139.4144  139.9360  159.2705 C.ar    1  UNL1        0.0717
      6 C         138.2596  140.8914  159.2094 C.3     1  UNL1        0.1857
      7 O         137.5990  141.1862  157.8954 O.3     1  UNL1       -0.3454
      8 C         138.0931  140.5256  156.6426 C.3     1  UNL1        0.1671
      9 C         139.2479  139.5703  156.7037 C.3     1  UNL1        0.1379
     10 N         138.7809  139.7423  162.5301 N.am    1  UNL1       -0.2987
     11 C         140.1126  139.8589  161.8496 C.2     1  UNL1        0.2472
     12 O         141.2981  140.3806  162.6059 O.2     1  UNL1       -0.2701
     13 H         138.0027  139.3998  162.0337 H       1  UNL1        0.1500
     14 C         138.6348  140.1475  163.9670 C.3     1  UNL1        0.0943
     15 C         138.6485  141.5998  164.3418 C.ar    1  UNL1       -0.0045
     16 C         137.7114  142.5573  163.6673 C.ar    1  UNL1       -0.0027
     17 C         137.7251  144.0097  164.0421 C.ar    1  UNL1       -0.0003
     18 C         138.6760  144.5045  165.0914 C.ar    1  UNL1       -0.0000
     19 C         139.6131  143.5469  165.7659 C.ar    1  UNL1       -0.0003
     20 C         139.5994  142.0946  165.3911 C.ar    1  UNL1       -0.0027
     21 C         139.1644  137.7757  164.8857 C.3     1  UNL1        0.0021
     22 C         138.4751  139.1002  165.0289 C.3     1  UNL1        0.0241
     23 C         141.8519  137.5337  157.4395 C.2     1  UNL1        0.2619
     24 O         143.3171  137.7912  157.2480 O.2     1  UNL1       -0.2686
     25 N         141.1804  136.4248  156.6847 N.am    1  UNL1       -0.2975
     26 H         140.2187  136.2557  156.8104 H       1  UNL1        0.1500
     27 C         141.9742  135.5736  155.7385 C.3     1  UNL1        0.0959
     28 C         142.5950  134.2957  156.2199 C.ar    1  UNL1        0.0149
     29 C         142.0851  132.9780  155.7163 C.ar    1  UNL1        0.0036
     30 C         142.7058  131.7001  156.1977 C.ar    1  UNL1        0.0574
     31 C         143.8364  131.7400  157.1827 C.ar    1  UNL1        0.2250
     32 N         144.3462  133.0577  157.6864 N.ar    1  UNL1       -0.2104
     33 C         143.7255  134.3356  157.2050 C.ar    1  UNL1        0.0993
     34 O         144.4571  130.4621  157.6641 O.3     1  UNL1       -0.4561
     35 C         143.5962  129.3878  158.2596 C.3     1  UNL1        0.2542
     36 C         142.1473  136.0003  154.3110 C.3     1  UNL1        0.0242
     37 C         140.9557  136.4274  153.5062 C.3     1  UNL1        0.0021
@<TRIPOS>BOND
     1    21    22    1
     2    14    22    1
     3    14    10    1
     4    10    11   am
     5    11    12    2
     6    11     1    1
     7     1     2   ar
     8     2     3   ar
     9     3    23    1
    10    23    24    2
    11    23    25   am
    12    25    27    1
    13    27    36    1
    14    36    37    1
    15    27    28    1
    16    28    29   ar
    17    29    30   ar
    18    30    31   ar
    19    31    34    1
    20    34    35    1
    21    31    32   ar
    22    32    33   ar
    23     3     4   ar
    24     4     5   ar
    25     5     6    1
    26     6     7    1
    27     7     8    1
    28     8     9    1
    29    14    15    1
    30    15    16   ar
    31    16    17   ar
    32    17    18   ar
    33    18    19   ar
    34    19    20   ar
    35     5     1   ar
    36    20    15   ar
    37    33    28   ar
    38     9     4    1
    39    10    13    1
    40    25    26    1
@<TRIPOS>MOLECULE
*****
 37 40 0 0 0
SMALL
GASTEIGER

@<TRIPOS>ATOM
      1 C         142.9580  139.5113  160.4644 C.ar    1  UNL1        0.0690
      2 C         142.6722  138.2767  159.6619 C.ar    1  UNL1        0.0275
      3 C         143.0592  138.5493  158.2385 C.ar    1  UNL1        0.1140
      4 N         143.5842  139.9523  158.1614 N.ar    1  UNL1       -0.3223
      5 C         143.5216  140.5469  159.5371 C.ar    1  UNL1        0.0717
      6 C         143.9859  141.9544  159.7677 C.3     1  UNL1        0.1857
      7 O         144.5129  142.7673  158.6225 O.3     1  UNL1       -0.3454
      8 C         144.5754  142.1727  157.2468 C.3     1  UNL1        0.1671
      9 C         144.1111  140.7652  157.0162 C.3     1  UNL1        0.1379
     10 N         142.7993  138.4934  162.8496 N.am    1  UNL1       -0.2987
     11 C         142.7216  139.6806  161.9360 C.2     1  UNL1        0.2472
     12 O         142.4075  141.0370  162.4940 O.2     1  UNL1       -0.2701
     13 H         143.0055  137.6031  162.4834 H       1  UNL1        0.1500
     14 C         142.5629  138.6627  164.3212 C.3     1  UNL1        0.0943
     15 C         141.1630  138.6721  164.8597 C.ar    1  UNL1       -0.0045
     16 C         140.6645  139.8574  165.6321 C.ar    1  UNL1       -0.0027
     17 C         139.2645  139.8668  166.1707 C.ar    1  UNL1       -0.0003
     18 C         138.3631  138.6909  165.9369 C.ar    1  UNL1       -0.0000
     19 C         138.8617  137.5056  165.1645 C.ar    1  UNL1       -0.0003
     20 C         140.2616  137.4962  164.6259 C.ar    1  UNL1       -0.0027
     21 C         143.7743  138.0421  166.5341 C.3     1  UNL1        0.0021
     22 C         143.7266  138.8227  165.2541 C.3     1  UNL1        0.0241
     23 C         142.9419  137.5876  157.0933 C.2     1  UNL1        0.2619
     24 O         144.0761  137.4336  156.1240 O.2     1  UNL1       -0.2686
     25 N         141.6901  136.7799  156.9174 N.am    1  UNL1       -0.2975
     26 H         140.9456  136.8809  157.5536 H       1  UNL1        0.1500
     27 C         141.5728  135.8182  155.7722 C.3     1  UNL1        0.0959
     28 C         141.9520  134.3791  155.9595 C.ar    1  UNL1        0.0149
     29 C         141.2738  133.3135  155.1504 C.ar    1  UNL1        0.0036
     30 C         141.6530  131.8743  155.3376 C.ar    1  UNL1        0.0574
     31 C         142.7102  131.5008  156.3339 C.ar    1  UNL1        0.2250
     32 N         143.3884  132.5664  157.1430 N.ar    1  UNL1       -0.2104
     33 C         143.0092  134.0055  156.9558 C.ar    1  UNL1        0.0993
     34 O         143.0894  130.0616  156.5212 O.3     1  UNL1       -0.4561
     35 C         144.5347  129.6742  156.6256 C.3     1  UNL1        0.2542
     36 C         141.0763  136.2958  154.4398 C.3     1  UNL1        0.0242
     37 C         142.0359  136.4681  153.2998 C.3     1  UNL1        0.0021
@<TRIPOS>BOND
     1    21    22    1
     2    14    22    1
     3    14    10    1
     4    10    11   am
     5    11    12    2
     6    11     1    1
     7     1     2   ar
     8     2     3   ar
     9     3    23    1
    10    23    24    2
    11    23    25   am
    12    25    27    1
    13    27    36    1
    14    36    37    1
    15    27    28    1
    16    28    29   ar
    17    29    30   ar
    18    30    31   ar
    19    31    34    1
    20    34    35    1
    21    31    32   ar
    22    32    33   ar
    23     3     4   ar
    24     4     5   ar
    25     5     6    1
    26     6     7    1
    27     7     8    1
    28     8     9    1
    29    14    15    1
    30    15    16   ar
    31    16    17   ar
    32    17    18   ar
    33    18    19   ar
    34    19    20   ar
    35     5     1   ar
    36    20    15   ar
    37    33    28   ar
    38     9     4    1
    39    10    13    1
    40    25    26    1
@<TRIPOS>MOLECULE
*****
 37 40 0 0 0
SMALL
GASTEIGER

@<TRIPOS>ATOM
      1 C         142.1799  137.8000  158.3868 C.ar    1  UNL1        0.0690
      2 C         142.9486  137.9228  159.6690 C.ar    1  UNL1        0.0275
      3 C         142.1179  138.7167  160.6331 C.ar    1  UNL1        0.1140
      4 N         140.8358  139.0846  159.9468 N.ar    1  UNL1       -0.3223
      5 C         140.8742  138.5180  158.5584 C.ar    1  UNL1        0.0717
      6 C         139.7152  138.7291  157.6300 C.3     1  UNL1        0.1857
      7 O         138.5178  139.5068  158.0898 O.3     1  UNL1       -0.3454
      8 C         138.4795  140.0734  159.4782 C.3     1  UNL1        0.1671
      9 C         139.6385  139.8623  160.4067 C.3     1  UNL1        0.1379
     10 N         141.8625  135.9076  156.6351 N.am    1  UNL1       -0.2987
     11 C         142.6368  137.0847  157.1500 C.2     1  UNL1        0.2472
     12 O         143.8678  137.5464  156.4280 O.2     1  UNL1       -0.2701
     13 H         141.0545  135.6045  157.1089 H       1  UNL1        0.1500
     14 C         142.3194  135.1923  155.3983 C.3     1  UNL1        0.0943
     15 C         143.0358  133.8794  155.5126 C.ar    1  UNL1       -0.0045
     16 C         142.7407  132.7768  154.5394 C.ar    1  UNL1       -0.0027
     17 C         143.4571  131.4639  154.6537 C.ar    1  UNL1       -0.0003
     18 C         144.4687  131.2537  155.7412 C.ar    1  UNL1       -0.0000
     19 C         144.7638  132.3563  156.7143 C.ar    1  UNL1       -0.0003
     20 C         144.0473  133.6692  156.6000 C.ar    1  UNL1       -0.0027
     21 C         140.6721  136.2169  153.6702 C.3     1  UNL1        0.0021
     22 C         142.0597  135.7900  154.0473 C.3     1  UNL1        0.0241
     23 C         142.5018  139.0792  162.0371 C.2     1  UNL1        0.2619
     24 O         142.9869  138.0181  162.9797 O.2     1  UNL1       -0.2686
     25 N         142.4006  140.5030  162.4985 N.am    1  UNL1       -0.2975
     26 H         142.0823  141.1995  161.8799 H       1  UNL1        0.1500
     27 C         142.7845  140.8654  163.9025 C.3     1  UNL1        0.0959
     28 C         141.8539  140.5573  165.0379 C.ar    1  UNL1        0.0149
     29 C         142.4073  140.1830  166.3808 C.ar    1  UNL1        0.0036
     30 C         141.4767  139.8749  167.5161 C.ar    1  UNL1        0.0574
     31 C         139.9926  139.9411  167.3085 C.ar    1  UNL1        0.2250
     32 N         139.4391  140.3154  165.9655 N.ar    1  UNL1       -0.2104
     33 C         140.3698  140.6235  164.8302 C.ar    1  UNL1        0.0993
     34 O         139.0619  139.6331  168.4438 O.3     1  UNL1       -0.4561
     35 C         139.1491  140.4177  169.7192 C.3     1  UNL1        0.2542
     36 C         144.0991  141.5360  164.1711 C.3     1  UNL1        0.0242
     37 C         145.3807  140.7853  163.9609 C.3     1  UNL1        0.0021
@<TRIPOS>BOND
     1    21    22    1
     2    14    22    1
     3    14    10    1
     4    10    11   am
     5    11    12    2
     6    11     1    1
     7     1     2   ar
     8     2     3   ar
     9     3    23    1
    10    23    24    2
    11    23    25   am
    12    25    27    1
    13    27    36    1
    14    36    37    1
    15    27    28    1
    16    28    29   ar
    17    29    30   ar
    18    30    31   ar
    19    31    34    1
    20    34    35    1
    21    31    32   ar
    22    32    33   ar
    23     3     4   ar
    24     4     5   ar
    25     5     6    1
    26     6     7    1
    27     7     8    1
    28     8     9    1
    29    14    15    1
    30    15    16   ar
    31    16    17   ar
    32    17    18   ar
    33    18    19   ar
    34    19    20   ar
    35     5     1   ar
    36    20    15   ar
    37    33    28   ar
    38     9     4    1
    39    10    13    1
    40    25    26    1
@<TRIPOS>MOLECULE
*****
 37 40 0 0 0
SMALL
GASTEIGER

@<TRIPOS>ATOM
      1 C         138.0466  142.3245  157.5017 C.ar    1  UNL1        0.0690
      2 C         138.3765  142.1662  158.9564 C.ar    1  UNL1        0.0275
      3 C         139.3639  143.2330  159.3265 C.ar    1  UNL1        0.1140
      4 N         139.6444  144.0505  158.1005 N.ar    1  UNL1       -0.3223
      5 C         138.8303  143.4891  156.9727 C.ar    1  UNL1        0.0717
      6 C         138.9076  144.1107  155.6099 C.3     1  UNL1        0.1857
      7 O         139.7992  145.2939  155.3748 O.3     1  UNL1       -0.3454
      8 C         140.6133  145.8553  156.5026 C.3     1  UNL1        0.1671
      9 C         140.5360  145.2336  157.8654 C.3     1  UNL1        0.1379
     10 N         135.8919  142.0829  156.0702 N.am    1  UNL1       -0.2987
     11 C         137.0994  141.4686  156.7142 C.2     1  UNL1        0.2472
     12 O         137.3596  139.9984  156.5706 O.2     1  UNL1       -0.2701
     13 H         135.7211  143.0479  156.1644 H       1  UNL1        0.1500
     14 C         134.9448  141.2269  155.2826 C.3     1  UNL1        0.0943
     15 C         133.6911  140.7100  155.9238 C.ar    1  UNL1       -0.0045
     16 C         133.7745  139.6808  157.0118 C.ar    1  UNL1       -0.0027
     17 C         132.5208  139.1639  157.6530 C.ar    1  UNL1       -0.0003
     18 C         131.1837  139.6762  157.2061 C.ar    1  UNL1       -0.0000
     19 C         131.1003  140.7054  156.1180 C.ar    1  UNL1       -0.0003
     20 C         132.3540  141.2223  155.4769 C.ar    1  UNL1       -0.0027
     21 C         134.8891  141.8490  152.7608 C.3     1  UNL1        0.0021
     22 C         135.2513  140.8879  153.8540 C.3     1  UNL1        0.0241
     23 C         139.9654  143.4449  160.6842 C.2     1  UNL1        0.2619
     24 O         141.4333  143.7223  160.8193 O.2     1  UNL1       -0.2686
     25 N         139.0989  143.3796  161.9069 N.am    1  UNL1       -0.2975
     26 H         138.1354  143.1976  161.8183 H       1  UNL1        0.1500
     27 C         139.7003  143.5916  163.2646 C.3     1  UNL1        0.0959
     28 C         140.5904  142.5428  163.8627 C.ar    1  UNL1        0.0149
     29 C         141.9509  142.9156  164.3726 C.ar    1  UNL1        0.0036
     30 C         142.8410  141.8668  164.9707 C.ar    1  UNL1        0.0574
     31 C         142.3707  140.4452  165.0588 C.ar    1  UNL1        0.2250
     32 N         141.0102  140.0724  164.5488 N.ar    1  UNL1       -0.2104
     33 C         140.1201  141.1212  163.9508 C.ar    1  UNL1        0.0993
     34 O         143.2608  139.3964  165.6568 O.3     1  UNL1       -0.4561
     35 C         143.0254  138.9247  167.0611 C.3     1  UNL1        0.2542
     36 C         139.4116  144.8524  164.0241 C.3     1  UNL1        0.0242
     37 C         138.5906  144.8009  165.2784 C.3     1  UNL1        0.0021
@<TRIPOS>BOND
     1    21    22    1
     2    14    22    1
     3    14    10    1
     4    10    11   am
     5    11    12    2
     6    11     1    1
     7     1     2   ar
     8     2     3   ar
     9     3    23    1
    10    23    24    2
    11    23    25   am
    12    25    27    1
    13    27    36    1
    14    36    37    1
    15    27    28    1
    16    28    29   ar
    17    29    30   ar
    18    30    31   ar
    19    31    34    1
    20    34    35    1
    21    31    32   ar
    22    32    33   ar
    23     3     4   ar
    24     4     5   ar
    25     5     6    1
    26     6     7    1
    27     7     8    1
    28     8     9    1
    29    14    15    1
    30    15    16   ar
    31    16    17   ar
    32    17    18   ar
    33    18    19   ar
    34    19    20   ar
    35     5     1   ar
    36    20    15   ar
    37    33    28   ar
    38     9     4    1
    39    10    13    1
    40    25    26    1
@<TRIPOS>MOLECULE
*****
 37 40 0 0 0
SMALL
GASTEIGER

@<TRIPOS>ATOM
      1 C         138.1421  142.3985  157.7388 C.ar    1  UNL1        0.0690
      2 C         138.2337  142.3448  159.2350 C.ar    1  UNL1        0.0275
      3 C         139.2248  143.3807  159.6761 C.ar    1  UNL1        0.1140
      4 N         139.7458  144.0745  158.4525 N.ar    1  UNL1       -0.3223
      5 C         139.0766  143.4675  157.2552 C.ar    1  UNL1        0.0717
      6 C         139.4046  143.9666  155.8792 C.3     1  UNL1        0.1857
      7 O         140.4019  145.0727  155.7007 O.3     1  UNL1       -0.3454
      8 C         141.0711  145.6798  156.8980 C.3     1  UNL1        0.1671
      9 C         140.7430  145.1807  158.2740 C.3     1  UNL1        0.1379
     10 N         136.0968  142.1339  156.1585 N.am    1  UNL1       -0.2987
     11 C         137.2692  141.5347  156.8774 C.2     1  UNL1        0.2472
     12 O         137.5686  140.0719  156.7347 O.2     1  UNL1       -0.2701
     13 H         135.9003  143.0940  156.2521 H       1  UNL1        0.1500
     14 C         135.2240  141.2702  155.2971 C.3     1  UNL1        0.0943
     15 C         133.9296  140.7376  155.8366 C.ar    1  UNL1       -0.0045
     16 C         132.6349  141.3999  155.4694 C.ar    1  UNL1       -0.0027
     17 C         131.3405  140.8674  156.0089 C.ar    1  UNL1       -0.0003
     18 C         131.3410  139.6725  156.9157 C.ar    1  UNL1       -0.0000
     19 C         132.6358  139.0101  157.2829 C.ar    1  UNL1       -0.0003
     20 C         133.9301  139.5427  156.7434 C.ar    1  UNL1       -0.0027
     21 C         136.6548  141.7981  153.1939 C.3     1  UNL1        0.0021
     22 C         135.6455  140.9390  153.8962 C.3     1  UNL1        0.0241
     23 C         139.6249  143.6717  161.0922 C.2     1  UNL1        0.2619
     24 O         138.6765  144.3876  162.0075 O.2     1  UNL1       -0.2686
     25 N         140.9734  143.2466  161.5931 N.am    1  UNL1       -0.2975
     26 H         141.5960  142.7766  160.9924 H       1  UNL1        0.1500
     27 C         141.3734  143.5375  163.0092 C.3     1  UNL1        0.0959
     28 C         140.8793  142.6627  164.1230 C.ar    1  UNL1        0.0149
     29 C         140.7380  143.2203  165.5083 C.ar    1  UNL1        0.0036
     30 C         140.2439  142.3454  166.6221 C.ar    1  UNL1        0.0574
     31 C         139.8911  140.9130  166.3505 C.ar    1  UNL1        0.2250
     32 N         140.0325  140.3554  164.9652 N.ar    1  UNL1       -0.2104
     33 C         140.5266  141.2303  163.8515 C.ar    1  UNL1        0.0993
     34 O         139.3970  140.0382  167.4643 O.3     1  UNL1       -0.4561
     35 C         139.7595  140.3558  168.8847 C.3     1  UNL1        0.2542
     36 C         142.2675  144.7034  163.3115 C.3     1  UNL1        0.0242
     37 C         143.7242  144.6425  162.9587 C.3     1  UNL1        0.0021
@<TRIPOS>BOND
     1    21    22    1
     2    14    22    1
     3    14    10    1
     4    10    11   am
     5    11    12    2
     6    11     1    1
     7     1     2   ar
     8     2     3   ar
     9     3    23    1
    10    23    24    2
    11    23    25   am
    12    25    27    1
    13    27    36    1
    14    36    37    1
    15    27    28    1
    16    28    29   ar
    17    29    30   ar
    18    30    31   ar
    19    31    34    1
    20    34    35    1
    21    31    32   ar
    22    32    33   ar
    23     3     4   ar
    24     4     5   ar
    25     5     6    1
    26     6     7    1
    27     7     8    1
    28     8     9    1
    29    14    15    1
    30    15    16   ar
    31    16    17   ar
    32    17    18   ar
    33    18    19   ar
    34    19    20   ar
    35     5     1   ar
    36    20    15   ar
    37    33    28   ar
    38     9     4    1
    39    10    13    1
    40    25    26    1
@<TRIPOS>MOLECULE
*****
 37 40 0 0 0
SMALL
GASTEIGER

@<TRIPOS>ATOM
      1 C         141.7935  139.8522  160.9821 C.ar    1  UNL1        0.0690
      2 C         141.3574  138.6862  160.1452 C.ar    1  UNL1        0.0275
      3 C         142.0601  138.7761  158.8230 C.ar    1  UNL1        0.1140
      4 N         142.9305  139.9976  158.8427 N.ar    1  UNL1       -0.3223
      5 C         142.7657  140.6627  160.1771 C.ar    1  UNL1        0.0717
      6 C         143.5222  141.9203  160.4868 C.3     1  UNL1        0.1857
      7 O         144.4435  142.5129  159.4622 O.3     1  UNL1       -0.3454
      8 C         144.6083  141.8479  158.1278 C.3     1  UNL1        0.1671
      9 C         143.8518  140.5902  157.8181 C.3     1  UNL1        0.1379
     10 N         139.8811  140.0679  162.7275 N.am    1  UNL1       -0.2987
     11 C         141.3375  140.1546  162.3787 C.2     1  UNL1        0.2472
     12 O         142.3377  140.5435  163.4266 O.2     1  UNL1       -0.2701
     13 H         139.2245  139.8126  162.0397 H       1  UNL1        0.1500
     14 C         139.4250  140.3703  164.1241 C.3     1  UNL1        0.0943
     15 C         139.1363  141.7855  164.5289 C.ar    1  UNL1       -0.0045
     16 C         140.0226  142.4773  165.5218 C.ar    1  UNL1       -0.0027
     17 C         139.7339  143.8925  165.9266 C.ar    1  UNL1       -0.0003
     18 C         138.5588  144.6159  165.3386 C.ar    1  UNL1       -0.0000
     19 C         137.6725  143.9241  164.3457 C.ar    1  UNL1       -0.0003
     20 C         137.9612  142.5089  163.9409 C.ar    1  UNL1       -0.0027
     21 C         138.1081  139.2779  166.0791 C.3     1  UNL1        0.0021
     22 C         139.2578  139.2575  165.1158 C.3     1  UNL1        0.0241
     23 C         141.9175  137.8135  157.6815 C.2     1  UNL1        0.2619
     24 O         140.5531  137.4206  157.1977 O.2     1  UNL1       -0.2686
     25 N         143.1393  137.2438  157.0237 N.am    1  UNL1       -0.2975
     26 H         144.0348  137.5017  157.3412 H       1  UNL1        0.1500
     27 C         142.9967  136.2812  155.8822 C.3     1  UNL1        0.0959
     28 C         142.9484  134.8056  156.1470 C.ar    1  UNL1        0.0149
     29 C         141.9717  133.9420  155.4052 C.ar    1  UNL1        0.0036
     30 C         141.9235  132.4664  155.6700 C.ar    1  UNL1        0.0574
     31 C         142.8519  131.8543  156.6766 C.ar    1  UNL1        0.2250
     32 N         143.8286  132.7178  157.4185 N.ar    1  UNL1       -0.2104
     33 C         143.8769  134.1935  157.1536 C.ar    1  UNL1        0.0993
     34 O         142.8037  130.3787  156.9415 O.3     1  UNL1       -0.4561
     35 C         143.7947  129.7517  157.8767 C.3     1  UNL1        0.2542
     36 C         142.9023  136.7943  154.4759 C.3     1  UNL1        0.0242
     37 C         141.6054  137.3486  153.9652 C.3     1  UNL1        0.0021
@<TRIPOS>BOND
     1    21    22    1
     2    14    22    1
     3    14    10    1
     4    10    11   am
     5    11    12    2
     6    11     1    1
     7     1     2   ar
     8     2     3   ar
     9     3    23    1
    10    23    24    2
    11    23    25   am
    12    25    27    1
    13    27    36    1
    14    36    37    1
    15    27    28    1
    16    28    29   ar
    17    29    30   ar
    18    30    31   ar
    19    31    34    1
    20    34    35    1
    21    31    32   ar
    22    32    33   ar
    23     3     4   ar
    24     4     5   ar
    25     5     6    1
    26     6     7    1
    27     7     8    1
    28     8     9    1
    29    14    15    1
    30    15    16   ar
    31    16    17   ar
    32    17    18   ar
    33    18    19   ar
    34    19    20   ar
    35     5     1   ar
    36    20    15   ar
    37    33    28   ar
    38     9     4    1
    39    10    13    1
    40    25    26    1
@<TRIPOS>MOLECULE
*****
 37 40 0 0 0
SMALL
GASTEIGER

@<TRIPOS>ATOM
      1 C         140.2473  141.8124  162.6252 C.ar    1  UNL1        0.0690
      2 C         141.2071  141.0046  161.8030 C.ar    1  UNL1        0.0275
      3 C         141.6724  141.8589  160.6613 C.ar    1  UNL1        0.1140
      4 N         141.0001  143.1948  160.7778 N.ar    1  UNL1       -0.3223
      5 C         140.1193  143.1660  161.9917 C.ar    1  UNL1        0.0717
      6 C         139.3145  144.3761  162.3632 C.3     1  UNL1        0.1857
      7 O         139.3906  145.6149  161.5209 O.3     1  UNL1       -0.3454
      8 C         140.2714  145.6436  160.3071 C.3     1  UNL1        0.1671
      9 C         141.0762  144.4336  159.9356 C.3     1  UNL1        0.1379
     10 N         140.2582  140.4875  164.8602 N.am    1  UNL1       -0.2987
     11 C         139.5395  141.3482  163.8636 C.2     1  UNL1        0.2472
     12 O         138.1133  141.7445  164.1056 O.2     1  UNL1       -0.2701
     13 H         141.1943  140.2274  164.7014 H       1  UNL1        0.1500
     14 C         139.5505  140.0233  166.0986 C.3     1  UNL1        0.0943
     15 C         139.7326  140.7655  167.3893 C.ar    1  UNL1       -0.0045
     16 C         139.2765  140.1502  168.6791 C.ar    1  UNL1       -0.0027
     17 C         139.4586  140.8924  169.9698 C.ar    1  UNL1       -0.0003
     18 C         140.0969  142.2498  169.9708 C.ar    1  UNL1       -0.0000
     19 C         140.5530  142.8651  168.6810 C.ar    1  UNL1       -0.0003
     20 C         140.3709  142.1229  167.3903 C.ar    1  UNL1       -0.0027
     21 C         138.9889  137.6826  165.1212 C.3     1  UNL1        0.0021
     22 C         138.6607  138.8169  166.0462 C.3     1  UNL1        0.0241
     23 C         142.6401  141.4494  159.5909 C.2     1  UNL1        0.2619
     24 O         144.0980  141.3053  159.9129 O.2     1  UNL1       -0.2686
     25 N         142.1499  141.1839  158.1982 N.am    1  UNL1       -0.2975
     26 H         141.1931  141.2785  157.9868 H       1  UNL1        0.1500
     27 C         143.1176  140.7744  157.1278 C.3     1  UNL1        0.0959
     28 C         143.3133  139.3216  156.8095 C.ar    1  UNL1        0.0149
     29 C         142.5523  138.2777  157.5718 C.ar    1  UNL1        0.0036
     30 C         142.7479  136.8250  157.2535 C.ar    1  UNL1        0.0574
     31 C         143.7046  136.4162  156.1729 C.ar    1  UNL1        0.2250
     32 N         144.4656  137.4601  155.4106 N.ar    1  UNL1       -0.2104
     33 C         144.2700  138.9128  155.7289 C.ar    1  UNL1        0.0993
     34 O         143.9002  134.9635  155.8546 O.3     1  UNL1       -0.4561
     35 C         142.9921  133.9342  156.4594 C.3     1  UNL1        0.2542
     36 C         143.8897  141.8176  156.3758 C.3     1  UNL1        0.0242
     37 C         143.2379  142.5687  155.2528 C.3     1  UNL1        0.0021
@<TRIPOS>BOND
     1    21    22    1
     2    14    22    1
     3    14    10    1
     4    10    11   am
     5    11    12    2
     6    11     1    1
     7     1     2   ar
     8     2     3   ar
     9     3    23    1
    10    23    24    2
    11    23    25   am
    12    25    27    1
    13    27    36    1
    14    36    37    1
    15    27    28    1
    16    28    29   ar
    17    29    30   ar
    18    30    31   ar
    19    31    34    1
    20    34    35    1
    21    31    32   ar
    22    32    33   ar
    23     3     4   ar
    24     4     5   ar
    25     5     6    1
    26     6     7    1
    27     7     8    1
    28     8     9    1
    29    14    15    1
    30    15    16   ar
    31    16    17   ar
    32    17    18   ar
    33    18    19   ar
    34    19    20   ar
    35     5     1   ar
    36    20    15   ar
    37    33    28   ar
    38     9     4    1
    39    10    13    1
    40    25    26    1
