@<TRIPOS>MOLECULE
*****
 39 43 0 0 0
SMALL
GASTEIGER

@<TRIPOS>ATOM
      1 C         140.3596  138.4916  163.4925 C.3     1  UNL1        0.1103
      2 O         139.6208  137.5429  162.5957 O.3     1  UNL1       -0.3826
      3 C         141.3823  139.4867  163.9551 C.3     1  UNL1        0.0526
      4 C         141.3307  140.0188  165.3566 C.3     1  UNL1        0.0950
      5 N         140.2563  139.5560  166.2955 N.pl3   1  UNL1       -0.2917
      6 C         139.2336  138.5610  165.8329 C.3     1  UNL1        0.0950
      7 C         139.2852  138.0288  164.4314 C.3     1  UNL1        0.0526
      8 H         140.0473  137.5229  161.7247 H       1  UNL1        0.2107
      9 C         140.2047  140.0882  167.6970 C.ar    1  UNL1        0.1520
     10 C         138.9690  139.8993  168.5259 C.ar    1  UNL1        0.0393
     11 C         138.9174  140.4315  169.9274 C.ar    1  UNL1        0.0436
     12 C         140.1016  141.1526  170.4998 C.ar    1  UNL1        0.1867
     13 N         140.3416  141.7824  171.8400 N.ar    1  UNL1       -0.1270
     14 N         141.7257  142.3605  171.8392 N.ar    1  UNL1       -0.1228
     15 C         142.3411  142.0880  170.4986 C.ar    1  UNL1        0.2583
     16 N         141.3374  141.3415  169.6709 N.ar    1  UNL1       -0.1866
     17 N         141.3889  140.8093  168.2695 N.ar    1  UNL1       -0.1473
     18 C         143.7184  142.4913  170.0624 C.3     1  UNL1        0.4541
     19 F         145.0959  142.8945  169.6260 F       1  UNL1       -0.1631
     20 F         143.8096  141.2593  169.2115 F       1  UNL1       -0.1631
     21 F         143.6273  143.7232  170.9132 F       1  UNL1       -0.1631
     22 C         142.8129  138.8917  159.7415 C.ar    1  UNL1        0.1386
     23 C         141.4362  139.4838  159.8039 C.ar    1  UNL1        0.0367
     24 C         140.6184  139.3504  161.0542 C.ar    1  UNL1        0.0011
     25 C         141.1774  138.6250  162.2422 C.ar    1  UNL1        0.0020
     26 C         142.5541  138.0329  162.1798 C.ar    1  UNL1        0.0011
     27 C         143.3719  138.1663  160.9294 C.ar    1  UNL1        0.0367
     28 O         143.6308  139.0251  158.4911 O.3     1  UNL1       -0.4740
     29 C         143.6484  140.3241  157.7413 C.3     1  UNL1        0.2226
     30 C         144.4821  141.4669  158.2405 C.3     1  UNL1        0.1201
     31 C         143.4166  144.9502  164.0698 C.3     1  UNL1        0.0948
     32 C         142.5597  144.7940  162.8487 C.2     1  UNL1        0.2262
     33 O         141.2222  145.4694  162.7795 O.2     1  UNL1       -0.2749
     34 N         143.0403  143.9622  161.6966 N.am    1  UNL1       -0.2767
     35 C         144.3779  143.2867  161.7657 C.3     1  UNL1        0.1107
     36 C         144.8584  142.4549  160.6137 C.3     1  UNL1        0.0940
     37 N         144.0016  142.2986  159.3925 N.3     1  UNL1       -0.2666
     38 C         142.6640  142.9741  159.3234 C.3     1  UNL1        0.0940
     39 C         142.1834  143.8059  160.4754 C.3     1  UNL1        0.1107
@<TRIPOS>BOND
     1    31    32    1
     2    32    33    2
     3    32    34   am
     4    34    35    1
     5    35    36    1
     6    36    37    1
     7    37    30    1
     8    30    29    1
     9    29    28    1
    10    28    22    1
    11    22    23   ar
    12    23    24   ar
    13    24    25   ar
    14    25     1    1
    15     1     2    1
    16     1     3    1
    17     3     4    1
    18     4     5    1
    19     5     9    1
    20     9    10   ar
    21    10    11   ar
    22    11    12   ar
    23    12    13   ar
    24    13    14   ar
    25    14    15   ar
    26    15    18    1
    27    18    19    1
    28    18    20    1
    29    18    21    1
    30    15    16   ar
    31    16    17   ar
    32     5     6    1
    33     6     7    1
    34    25    26   ar
    35    26    27   ar
    36    37    38    1
    37    38    39    1
    38    39    34    1
    39    27    22   ar
    40     7     1    1
    41    17     9   ar
    42    16    12   ar
    43     2     8    1
@<TRIPOS>MOLECULE
*****
 39 43 0 0 0
SMALL
GASTEIGER

@<TRIPOS>ATOM
      1 C         141.5556  138.3499  162.9853 C.3     1  UNL1        0.1103
      2 O         141.4166  137.1130  162.1481 O.3     1  UNL1       -0.3826
      3 C         141.9255  139.7478  163.3841 C.3     1  UNL1        0.0526
      4 C         141.5823  140.2525  164.7543 C.3     1  UNL1        0.0950
      5 N         140.8692  139.3593  165.7257 N.pl3   1  UNL1       -0.2917
      6 C         140.4993  137.9614  165.3270 C.3     1  UNL1        0.0950
      7 C         140.8425  137.4567  163.9567 C.3     1  UNL1        0.0526
      8 H         141.8131  137.2664  161.2763 H       1  UNL1        0.2107
      9 C         140.5260  139.8640  167.0960 C.ar    1  UNL1        0.1520
     10 C         139.1543  139.6347  167.6579 C.ar    1  UNL1        0.0393
     11 C         138.8112  140.1394  169.0281 C.ar    1  UNL1        0.0436
     12 C         139.8398  140.8734  169.8364 C.ar    1  UNL1        0.1867
     13 N         139.7922  141.4827  171.2063 N.ar    1  UNL1       -0.1270
     14 N         141.1346  142.0885  171.4910 N.ar    1  UNL1       -0.1228
     15 C         142.0117  141.8536  170.2970 C.ar    1  UNL1        0.2583
     16 N         141.2115  141.1026  169.2745 N.ar    1  UNL1       -0.1866
     17 N         141.5546  140.5979  167.9043 N.ar    1  UNL1       -0.1473
     18 C         143.4386  142.2926  170.1513 C.3     1  UNL1        0.4541
     19 F         144.8656  142.7317  170.0055 F       1  UNL1       -0.1631
     20 F         143.0168  143.7215  170.3257 F       1  UNL1       -0.1631
     21 F         143.8604  140.8637  169.9768 F       1  UNL1       -0.1631
     22 C         143.5500  139.7409  159.1988 C.ar    1  UNL1        0.1386
     23 C         142.0575  139.6014  159.2528 C.ar    1  UNL1        0.0367
     24 C         141.3927  139.1377  160.5149 C.ar    1  UNL1        0.0011
     25 C         142.2204  138.8136  161.7232 C.ar    1  UNL1        0.0020
     26 C         143.7129  138.9531  161.6692 C.ar    1  UNL1        0.0011
     27 C         144.3777  139.4168  160.4070 C.ar    1  UNL1        0.0367
     28 O         144.2149  140.2046  157.9366 O.3     1  UNL1       -0.4740
     29 C         144.6981  141.6198  157.8198 C.3     1  UNL1        0.2226
     30 C         143.7492  142.7042  157.4026 C.3     1  UNL1        0.1201
     31 C         140.6649  145.2781  162.9804 C.3     1  UNL1        0.0948
     32 C         140.4229  145.5278  161.5213 C.2     1  UNL1        0.2262
     33 O         139.3495  146.4834  161.0918 O.2     1  UNL1       -0.2749
     34 N         141.2545  144.8219  160.4917 N.am    1  UNL1       -0.2767
     35 C         142.3281  143.8663  160.9211 C.3     1  UNL1        0.1107
     36 C         143.1596  143.1604  159.8915 C.3     1  UNL1        0.0940
     37 N         142.9177  143.4101  158.4323 N.3     1  UNL1       -0.2666
     38 C         141.8441  144.3657  158.0029 C.3     1  UNL1        0.0940
     39 C         141.0126  145.0716  159.0325 C.3     1  UNL1        0.1107
@<TRIPOS>BOND
     1    31    32    1
     2    32    33    2
     3    32    34   am
     4    34    35    1
     5    35    36    1
     6    36    37    1
     7    37    30    1
     8    30    29    1
     9    29    28    1
    10    28    22    1
    11    22    23   ar
    12    23    24   ar
    13    24    25   ar
    14    25     1    1
    15     1     2    1
    16     1     3    1
    17     3     4    1
    18     4     5    1
    19     5     9    1
    20     9    10   ar
    21    10    11   ar
    22    11    12   ar
    23    12    13   ar
    24    13    14   ar
    25    14    15   ar
    26    15    18    1
    27    18    19    1
    28    18    20    1
    29    18    21    1
    30    15    16   ar
    31    16    17   ar
    32     5     6    1
    33     6     7    1
    34    25    26   ar
    35    26    27   ar
    36    37    38    1
    37    38    39    1
    38    39    34    1
    39    27    22   ar
    40     7     1    1
    41    17     9   ar
    42    16    12   ar
    43     2     8    1
@<TRIPOS>MOLECULE
*****
 39 43 0 0 0
SMALL
GASTEIGER

@<TRIPOS>ATOM
      1 C         139.9734  138.3420  163.5776 C.3     1  UNL1        0.1103
      2 O         139.1413  137.4804  162.6748 O.3     1  UNL1       -0.3826
      3 C         141.0984  139.2148  164.0497 C.3     1  UNL1        0.0526
      4 C         141.0912  139.7564  165.4485 C.3     1  UNL1        0.0950
      5 N         139.9590  139.4254  166.3751 N.pl3   1  UNL1       -0.2917
      6 C         138.8341  138.5528  165.9030 C.3     1  UNL1        0.0950
      7 C         138.8413  138.0111  164.5042 C.3     1  UNL1        0.0526
      8 H         139.5733  137.4069  161.8094 H       1  UNL1        0.2107
      9 C         139.9519  139.9672  167.7739 C.ar    1  UNL1        0.1520
     10 C         138.7414  139.7880  168.6414 C.ar    1  UNL1        0.0393
     11 C         138.7343  140.3297  170.0401 C.ar    1  UNL1        0.0436
     12 C         139.9376  141.0506  170.5713 C.ar    1  UNL1        0.1867
     13 N         140.2204  141.6885  171.8992 N.ar    1  UNL1       -0.1270
     14 N         141.6057  142.2619  171.8524 N.ar    1  UNL1       -0.1228
     15 C         142.1790  141.9784  170.4956 C.ar    1  UNL1        0.2583
     16 N         141.1481  141.2298  169.7039 N.ar    1  UNL1       -0.1866
     17 N         141.1553  140.6880  168.3052 N.ar    1  UNL1       -0.1473
     18 C         143.5437  142.3740  170.0149 C.3     1  UNL1        0.4541
     19 F         144.9085  142.7697  169.5341 F       1  UNL1       -0.1631
     20 F         143.2254  143.8127  170.2953 F       1  UNL1       -0.1631
     21 F         143.8620  140.9353  169.7344 F       1  UNL1       -0.1631
     22 C         142.5029  138.4373  159.8571 C.ar    1  UNL1        0.1386
     23 C         143.0904  137.9579  161.1513 C.ar    1  UNL1        0.0367
     24 C         142.2472  137.9262  162.3915 C.ar    1  UNL1        0.0011
     25 C         140.8166  138.3738  162.3374 C.ar    1  UNL1        0.0020
     26 C         140.2291  138.8532  161.0432 C.ar    1  UNL1        0.0011
     27 C         141.0723  138.8849  159.8030 C.ar    1  UNL1        0.0367
     28 O         143.3461  138.4691  158.6168 O.3     1  UNL1       -0.4740
     29 C         142.6960  138.5977  157.2711 C.3     1  UNL1        0.2226
     30 C         143.2097  137.7980  156.1106 C.3     1  UNL1        0.1201
     31 C         142.6563  130.9505  156.3439 C.3     1  UNL1        0.0948
     32 C         141.8284  131.9788  155.6318 C.2     1  UNL1        0.2262
     33 O         140.6553  131.5524  154.8000 O.2     1  UNL1       -0.2749
     34 N         142.1738  133.4336  155.7515 N.am    1  UNL1       -0.2767
     35 C         143.3470  133.8600  156.5833 C.3     1  UNL1        0.1107
     36 C         143.6922  135.3148  156.7030 C.3     1  UNL1        0.0940
     37 N         142.8645  136.3432  155.9909 N.3     1  UNL1       -0.2666
     38 C         141.6913  135.9168  155.1591 C.3     1  UNL1        0.0940
     39 C         141.3459  134.4620  155.0394 C.3     1  UNL1        0.1107
@<TRIPOS>BOND
     1    31    32    1
     2    32    33    2
     3    32    34   am
     4    34    35    1
     5    35    36    1
     6    36    37    1
     7    37    30    1
     8    30    29    1
     9    29    28    1
    10    28    22    1
    11    22    23   ar
    12    23    24   ar
    13    24    25   ar
    14    25     1    1
    15     1     2    1
    16     1     3    1
    17     3     4    1
    18     4     5    1
    19     5     9    1
    20     9    10   ar
    21    10    11   ar
    22    11    12   ar
    23    12    13   ar
    24    13    14   ar
    25    14    15   ar
    26    15    18    1
    27    18    19    1
    28    18    20    1
    29    18    21    1
    30    15    16   ar
    31    16    17   ar
    32     5     6    1
    33     6     7    1
    34    25    26   ar
    35    26    27   ar
    36    37    38    1
    37    38    39    1
    38    39    34    1
    39    27    22   ar
    40     7     1    1
    41    17     9   ar
    42    16    12   ar
    43     2     8    1
@<TRIPOS>MOLECULE
*****
 39 43 0 0 0
SMALL
GASTEIGER

@<TRIPOS>ATOM
      1 C         141.2264  138.9255  163.2734 C.3     1  UNL1        0.1103
      2 O         142.0133  137.9254  162.4794 O.3     1  UNL1       -0.3826
      3 C         140.2745  140.0416  163.5872 C.3     1  UNL1        0.0526
      4 C         140.0709  140.4765  165.0082 C.3     1  UNL1        0.0950
      5 N         140.8190  139.7953  166.1155 N.pl3   1  UNL1       -0.2917
      6 C         141.7707  138.6792  165.8019 C.3     1  UNL1        0.0950
      7 C         141.9745  138.2443  164.3808 C.3     1  UNL1        0.0526
      8 H         141.8043  138.0240  161.5373 H       1  UNL1        0.2107
      9 C         140.6152  140.2302  167.5366 C.ar    1  UNL1        0.1520
     10 C         139.3181  139.9393  168.2314 C.ar    1  UNL1        0.0393
     11 C         139.1144  140.3742  169.6524 C.ar    1  UNL1        0.0436
     12 C         140.2079  141.1000  170.3787 C.ar    1  UNL1        0.1867
     13 N         140.2956  141.6474  171.7725 N.ar    1  UNL1       -0.1270
     14 N         141.6470  142.2766  171.9392 N.ar    1  UNL1       -0.1228
     15 C         142.3945  142.1180  170.6484 C.ar    1  UNL1        0.2583
     16 N         141.5051  141.3908  169.6840 N.ar    1  UNL1       -0.1866
     17 N         141.7088  140.9559  168.2629 N.ar    1  UNL1       -0.1473
     18 C         143.7870  142.6017  170.3707 C.3     1  UNL1        0.4541
     19 F         145.1795  143.0853  170.0930 F       1  UNL1       -0.1631
     20 F         144.1730  141.2268  169.9116 F       1  UNL1       -0.1631
     21 F         143.4010  143.9765  170.8298 F       1  UNL1       -0.1631
     22 C         139.8019  139.9272  159.1241 C.ar    1  UNL1        0.1386
     23 C         141.1650  140.3621  159.5745 C.ar    1  UNL1        0.0367
     24 C         141.6398  140.0282  160.9576 C.ar    1  UNL1        0.0011
     25 C         140.7515  139.2594  161.8903 C.ar    1  UNL1        0.0020
     26 C         139.3885  138.8244  161.4399 C.ar    1  UNL1        0.0011
     27 C         138.9137  139.1584  160.0567 C.ar    1  UNL1        0.0367
     28 O         139.3270  140.2611  157.7409 O.3     1  UNL1       -0.4740
     29 C         139.0300  141.6846  157.3731 C.3     1  UNL1        0.2226
     30 C         138.2084  142.5405  158.2910 C.3     1  UNL1        0.1201
     31 C         141.7243  145.4161  163.4504 C.3     1  UNL1        0.0948
     32 C         140.5424  144.4925  163.4624 C.2     1  UNL1        0.2262
     33 O         139.9440  144.0569  164.7670 O.2     1  UNL1       -0.2749
     34 N         139.9589  144.0045  162.1695 N.am    1  UNL1       -0.2767
     35 C         140.5573  144.4401  160.8647 C.3     1  UNL1        0.1107
     36 C         139.9738  143.9521  159.5720 C.3     1  UNL1        0.0940
     37 N         138.7919  143.0285  159.5838 N.3     1  UNL1       -0.2666
     38 C         138.1935  142.5930  160.8885 C.3     1  UNL1        0.0940
     39 C         138.7770  143.0809  162.1814 C.3     1  UNL1        0.1107
@<TRIPOS>BOND
     1    31    32    1
     2    32    33    2
     3    32    34   am
     4    34    35    1
     5    35    36    1
     6    36    37    1
     7    37    30    1
     8    30    29    1
     9    29    28    1
    10    28    22    1
    11    22    23   ar
    12    23    24   ar
    13    24    25   ar
    14    25     1    1
    15     1     2    1
    16     1     3    1
    17     3     4    1
    18     4     5    1
    19     5     9    1
    20     9    10   ar
    21    10    11   ar
    22    11    12   ar
    23    12    13   ar
    24    13    14   ar
    25    14    15   ar
    26    15    18    1
    27    18    19    1
    28    18    20    1
    29    18    21    1
    30    15    16   ar
    31    16    17   ar
    32     5     6    1
    33     6     7    1
    34    25    26   ar
    35    26    27   ar
    36    37    38    1
    37    38    39    1
    38    39    34    1
    39    27    22   ar
    40     7     1    1
    41    17     9   ar
    42    16    12   ar
    43     2     8    1
@<TRIPOS>MOLECULE
*****
 39 43 0 0 0
SMALL
GASTEIGER

@<TRIPOS>ATOM
      1 C         144.2578  141.9976  163.2505 C.3     1  UNL1        0.1103
      2 O         145.0461  142.8015  162.2594 O.3     1  UNL1       -0.3826
      3 C         143.4044  140.9010  163.8156 C.3     1  UNL1        0.0526
      4 C         143.0123  140.9262  165.2632 C.3     1  UNL1        0.0950
      5 N         143.4737  142.0479  166.1458 N.pl3   1  UNL1       -0.2917
      6 C         144.3271  143.1444  165.5807 C.3     1  UNL1        0.0950
      7 C         144.7192  143.1193  164.1330 C.3     1  UNL1        0.0526
      8 H         145.0151  142.3668  161.3928 H       1  UNL1        0.2107
      9 C         143.0816  142.0731  167.5935 C.ar    1  UNL1        0.1520
     10 C         143.9864  142.7128  168.6045 C.ar    1  UNL1        0.0393
     11 C         143.5943  142.7379  170.0521 C.ar    1  UNL1        0.0436
     12 C         142.2975  142.1233  170.4887 C.ar    1  UNL1        0.1867
     13 N         141.6497  141.9974  171.8358 N.ar    1  UNL1       -0.1270
     14 N         140.3447  141.2798  171.6572 N.ar    1  UNL1       -0.1228
     15 C         140.1859  140.9623  170.1998 C.ar    1  UNL1        0.2583
     16 N         141.3928  141.4836  169.4776 N.ar    1  UNL1       -0.1866
     17 N         141.7849  141.4585  168.0301 N.ar    1  UNL1       -0.1473
     18 C         139.0241  140.2487  169.5744 C.3     1  UNL1        0.4541
     19 F         137.8624  139.5350  168.9489 F       1  UNL1       -0.1631
     20 F         139.9707  139.4458  168.7322 F       1  UNL1       -0.1631
     21 F         138.0776  141.0516  170.4167 F       1  UNL1       -0.1631
     22 C         143.6949  139.4701  159.5702 C.ar    1  UNL1        0.1386
     23 C         143.5019  140.9557  159.4964 C.ar    1  UNL1        0.0367
     24 C         143.6895  141.7982  160.7232 C.ar    1  UNL1        0.0011
     25 C         144.0702  141.1551  162.0238 C.ar    1  UNL1        0.0020
     26 C         144.2633  139.6694  162.0975 C.ar    1  UNL1        0.0011
     27 C         144.0756  138.8269  160.8707 C.ar    1  UNL1        0.0367
     28 O         143.5073  138.6275  158.3434 O.3     1  UNL1       -0.4740
     29 C         142.2855  138.8046  157.4915 C.3     1  UNL1        0.2226
     30 C         140.9472  138.3530  157.9966 C.3     1  UNL1        0.1201
     31 C         137.5002  141.1196  163.2609 C.3     1  UNL1        0.0948
     32 C         137.9457  141.7143  161.9580 C.2     1  UNL1        0.2262
     33 O         137.6410  143.1493  161.6454 O.2     1  UNL1       -0.2749
     34 N         138.6961  140.8740  160.9677 N.am    1  UNL1       -0.2767
     35 C         139.0009  139.4388  161.2803 C.3     1  UNL1        0.1107
     36 C         139.7512  138.5986  160.2899 C.3     1  UNL1        0.0940
     37 N         140.1969  139.1932  158.9870 N.3     1  UNL1       -0.2666
     38 C         139.8921  140.6284  158.6744 C.3     1  UNL1        0.0940
     39 C         139.1417  141.4687  159.6647 C.3     1  UNL1        0.1107
@<TRIPOS>BOND
     1    31    32    1
     2    32    33    2
     3    32    34   am
     4    34    35    1
     5    35    36    1
     6    36    37    1
     7    37    30    1
     8    30    29    1
     9    29    28    1
    10    28    22    1
    11    22    23   ar
    12    23    24   ar
    13    24    25   ar
    14    25     1    1
    15     1     2    1
    16     1     3    1
    17     3     4    1
    18     4     5    1
    19     5     9    1
    20     9    10   ar
    21    10    11   ar
    22    11    12   ar
    23    12    13   ar
    24    13    14   ar
    25    14    15   ar
    26    15    18    1
    27    18    19    1
    28    18    20    1
    29    18    21    1
    30    15    16   ar
    31    16    17   ar
    32     5     6    1
    33     6     7    1
    34    25    26   ar
    35    26    27   ar
    36    37    38    1
    37    38    39    1
    38    39    34    1
    39    27    22   ar
    40     7     1    1
    41    17     9   ar
    42    16    12   ar
    43     2     8    1
@<TRIPOS>MOLECULE
*****
 39 43 0 0 0
SMALL
GASTEIGER

@<TRIPOS>ATOM
      1 C         143.5590  140.2259  163.1902 C.3     1  UNL1        0.1103
      2 O         144.4351  139.5007  162.2122 O.3     1  UNL1       -0.3826
      3 C         142.5663  141.2112  163.7323 C.3     1  UNL1        0.0526
      4 C         142.2135  141.1955  165.1901 C.3     1  UNL1        0.0950
      5 N         142.8532  140.1945  166.1059 N.pl3   1  UNL1       -0.2917
      6 C         143.8458  139.2092  165.5638 C.3     1  UNL1        0.0950
      7 C         144.1987  139.2248  164.1060 C.3     1  UNL1        0.0526
      8 H         144.3221  139.8862  161.3292 H       1  UNL1        0.2107
      9 C         142.5003  140.1788  167.5637 C.ar    1  UNL1        0.1520
     10 C         142.8225  138.9764  168.4005 C.ar    1  UNL1        0.0393
     11 C         142.4696  138.9607  169.8583 C.ar    1  UNL1        0.0436
     12 C         141.7945  140.1476  170.4793 C.ar    1  UNL1        0.1867
     13 N         141.3296  140.4190  171.8794 N.ar    1  UNL1       -0.1270
     14 N         140.7201  141.7893  171.9079 N.ar    1  UNL1       -0.1228
     15 C         140.8083  142.3647  170.5254 C.ar    1  UNL1        0.2583
     16 N         141.4723  141.3500  169.6425 N.ar    1  UNL1       -0.1866
     17 N         141.8252  141.3656  168.1847 N.ar    1  UNL1       -0.1473
     18 C         140.3185  143.7172  170.1004 C.3     1  UNL1        0.4541
     19 F         139.8285  145.0699  169.6755 F       1  UNL1       -0.1631
     20 F         139.1967  143.6225  171.0918 F       1  UNL1       -0.1631
     21 F         141.4402  143.8120  169.1091 F       1  UNL1       -0.1631
     22 C         142.5525  142.4734  159.4239 C.ar    1  UNL1        0.1386
     23 C         142.1630  141.0317  159.5637 C.ar    1  UNL1        0.0367
     24 C         142.4985  140.2825  160.8191 C.ar    1  UNL1        0.0011
     25 C         143.2235  140.9751  161.9348 C.ar    1  UNL1        0.0020
     26 C         143.6130  142.4168  161.7950 C.ar    1  UNL1        0.0011
     27 C         143.2775  143.1660  160.5395 C.ar    1  UNL1        0.0367
     28 O         142.2171  143.2227  158.1684 O.3     1  UNL1       -0.4740
     29 C         140.8262  143.7418  157.9538 C.3     1  UNL1        0.2226
     30 C         140.3113  144.8751  158.7908 C.3     1  UNL1        0.1201
     31 C         138.5534  144.8690  165.4361 C.3     1  UNL1        0.0948
     32 C         138.3520  143.8372  164.3661 C.2     1  UNL1        0.2262
     33 O         137.6608  142.5459  164.6900 O.2     1  UNL1       -0.2749
     34 N         138.8418  144.0967  162.9723 N.am    1  UNL1       -0.2767
     35 C         139.5330  145.3880  162.6484 C.3     1  UNL1        0.1107
     36 C         140.0228  145.6474  161.2546 C.3     1  UNL1        0.0940
     37 N         139.8215  144.6157  160.1846 N.3     1  UNL1       -0.2666
     38 C         139.1303  143.3244  160.5085 C.3     1  UNL1        0.0940
     39 C         138.6404  143.0649  161.9023 C.3     1  UNL1        0.1107
@<TRIPOS>BOND
     1    31    32    1
     2    32    33    2
     3    32    34   am
     4    34    35    1
     5    35    36    1
     6    36    37    1
     7    37    30    1
     8    30    29    1
     9    29    28    1
    10    28    22    1
    11    22    23   ar
    12    23    24   ar
    13    24    25   ar
    14    25     1    1
    15     1     2    1
    16     1     3    1
    17     3     4    1
    18     4     5    1
    19     5     9    1
    20     9    10   ar
    21    10    11   ar
    22    11    12   ar
    23    12    13   ar
    24    13    14   ar
    25    14    15   ar
    26    15    18    1
    27    18    19    1
    28    18    20    1
    29    18    21    1
    30    15    16   ar
    31    16    17   ar
    32     5     6    1
    33     6     7    1
    34    25    26   ar
    35    26    27   ar
    36    37    38    1
    37    38    39    1
    38    39    34    1
    39    27    22   ar
    40     7     1    1
    41    17     9   ar
    42    16    12   ar
    43     2     8    1
@<TRIPOS>MOLECULE
*****
 39 43 0 0 0
SMALL
GASTEIGER

@<TRIPOS>ATOM
      1 C         143.1221  139.1221  162.6626 C.3     1  UNL1        0.1103
      2 O         144.4921  138.8224  162.1302 O.3     1  UNL1       -0.3826
      3 C         141.6423  139.3661  162.6889 C.3     1  UNL1        0.0526
      4 C         140.9547  139.6663  163.9878 C.3     1  UNL1        0.0950
      5 N         141.7468  139.7225  165.2603 N.pl3   1  UNL1       -0.2917
      6 C         143.2265  139.4785  165.2340 C.3     1  UNL1        0.0950
      7 C         143.9143  139.1783  163.9351 C.3     1  UNL1        0.0526
      8 H         144.4442  138.6908  161.1703 H       1  UNL1        0.2107
      9 C         141.0591  140.0227  166.5592 C.ar    1  UNL1        0.1520
     10 C         139.6671  139.5206  166.8044 C.ar    1  UNL1        0.0393
     11 C         138.9795  139.8208  168.1032 C.ar    1  UNL1        0.0436
     12 C         139.6838  140.6232  169.1568 C.ar    1  UNL1        0.1867
     13 N         139.2628  141.0734  170.5244 N.ar    1  UNL1       -0.1270
     14 N         140.3946  141.8538  171.1243 N.ar    1  UNL1       -0.1228
     15 C         141.5151  141.8859  170.1275 C.ar    1  UNL1        0.2583
     16 N         141.0758  141.1253  168.9116 N.ar    1  UNL1       -0.1866
     17 N         141.7634  140.8251  167.6128 N.ar    1  UNL1       -0.1473
     18 C         142.8419  142.5602  170.3140 C.3     1  UNL1        0.4541
     19 F         144.1688  143.2346  170.5005 F       1  UNL1       -0.1631
     20 F         142.1560  143.8927  170.3768 F       1  UNL1       -0.1631
     21 F         143.5279  141.2277  170.2512 F       1  UNL1       -0.1631
     22 C         142.1730  138.6412  158.2902 C.ar    1  UNL1        0.1386
     23 C         141.8445  139.9255  158.9922 C.ar    1  UNL1        0.0367
     24 C         142.1609  140.0858  160.4496 C.ar    1  UNL1        0.0011
     25 C         142.8058  138.9618  161.2052 C.ar    1  UNL1        0.0020
     26 C         143.1342  137.6775  160.5032 C.ar    1  UNL1        0.0011
     27 C         142.8178  137.5172  159.0457 C.ar    1  UNL1        0.0367
     28 O         141.8566  138.4809  156.8327 O.3     1  UNL1       -0.4740
     29 C         142.5060  137.3852  156.0404 C.3     1  UNL1        0.2226
     30 C         141.7016  136.1961  155.6056 C.3     1  UNL1        0.1201
     31 C         144.6098  130.4733  158.0634 C.3     1  UNL1        0.0948
     32 C         143.4845  130.6627  157.0898 C.2     1  UNL1        0.2262
     33 O         142.8050  129.4689  156.4873 O.2     1  UNL1       -0.2749
     34 N         143.0388  132.0461  156.7188 N.am    1  UNL1       -0.2767
     35 C         143.7184  133.2400  157.3213 C.3     1  UNL1        0.1107
     36 C         143.2726  134.6233  156.9503 C.3     1  UNL1        0.0940
     37 N         142.1473  134.8128  155.9767 N.3     1  UNL1       -0.2666
     38 C         141.4678  133.6189  155.3742 C.3     1  UNL1        0.0940
     39 C         141.9135  132.2356  155.7452 C.3     1  UNL1        0.1107
@<TRIPOS>BOND
     1    31    32    1
     2    32    33    2
     3    32    34   am
     4    34    35    1
     5    35    36    1
     6    36    37    1
     7    37    30    1
     8    30    29    1
     9    29    28    1
    10    28    22    1
    11    22    23   ar
    12    23    24   ar
    13    24    25   ar
    14    25     1    1
    15     1     2    1
    16     1     3    1
    17     3     4    1
    18     4     5    1
    19     5     9    1
    20     9    10   ar
    21    10    11   ar
    22    11    12   ar
    23    12    13   ar
    24    13    14   ar
    25    14    15   ar
    26    15    18    1
    27    18    19    1
    28    18    20    1
    29    18    21    1
    30    15    16   ar
    31    16    17   ar
    32     5     6    1
    33     6     7    1
    34    25    26   ar
    35    26    27   ar
    36    37    38    1
    37    38    39    1
    38    39    34    1
    39    27    22   ar
    40     7     1    1
    41    17     9   ar
    42    16    12   ar
    43     2     8    1
@<TRIPOS>MOLECULE
*****
 39 43 0 0 0
SMALL
GASTEIGER

@<TRIPOS>ATOM
      1 C         143.7469  143.0613  162.9556 C.3     1  UNL1        0.1103
      2 O         144.6305  143.9756  162.1598 O.3     1  UNL1       -0.3826
      3 C         142.7338  142.0002  163.2687 C.3     1  UNL1        0.0526
      4 C         142.4006  141.6792  164.6955 C.3     1  UNL1        0.0950
      5 N         143.0804  142.4190  165.8093 N.pl3   1  UNL1       -0.2917
      6 C         144.0935  143.4800  165.4962 C.3     1  UNL1        0.0950
      7 C         144.4267  143.8011  164.0694 C.3     1  UNL1        0.0526
      8 H         144.4951  143.8129  161.2132 H       1  UNL1        0.2107
      9 C         142.7471  142.0979  167.2362 C.ar    1  UNL1        0.1520
     10 C         143.6768  142.5170  168.3361 C.ar    1  UNL1        0.0393
     11 C         143.3435  142.1959  169.7629 C.ar    1  UNL1        0.0436
     12 C         142.0805  141.4556  170.0897 C.ar    1  UNL1        0.1867
     13 N         141.4913  141.0023  171.3926 N.ar    1  UNL1       -0.1270
     14 N         140.1974  140.3030  171.0978 N.ar    1  UNL1       -0.1228
     15 C         139.9870  140.3241  169.6127 C.ar    1  UNL1        0.2583
     16 N         141.1508  141.0364  168.9897 N.ar    1  UNL1       -0.1866
     17 N         141.4841  141.3576  167.5630 N.ar    1  UNL1       -0.1473
     18 C         138.8180  139.7361  168.8794 C.3     1  UNL1        0.4541
     19 F         137.6490  139.1480  168.1461 F       1  UNL1       -0.1631
     20 F         137.9397  140.0027  170.0658 F       1  UNL1       -0.1631
     21 F         139.6964  139.4694  167.6931 F       1  UNL1       -0.1631
     22 C         142.6281  141.7942  158.7852 C.ar    1  UNL1        0.1386
     23 C         143.9480  141.3812  159.3658 C.ar    1  UNL1        0.0367
     24 C         144.3210  141.8035  160.7559 C.ar    1  UNL1        0.0011
     25 C         143.3740  142.6389  161.5655 C.ar    1  UNL1        0.0020
     26 C         142.0540  143.0520  160.9849 C.ar    1  UNL1        0.0011
     27 C         141.6811  142.6296  159.5947 C.ar    1  UNL1        0.0367
     28 O         142.2550  141.3719  157.3950 O.3     1  UNL1       -0.4740
     29 C         141.4187  140.1449  157.1829 C.3     1  UNL1        0.2226
     30 C         141.8263  138.8426  157.8059 C.3     1  UNL1        0.1201
     31 C         141.1435  137.1161  164.4242 C.3     1  UNL1        0.0948
     32 C         140.1224  137.5341  163.4081 C.2     1  UNL1        0.2262
     33 O         138.6754  137.6250  163.7924 O.2     1  UNL1       -0.2749
     34 N         140.5484  137.8613  162.0076 N.am    1  UNL1       -0.2767
     35 C         141.9955  137.7704  161.6231 C.3     1  UNL1        0.1107
     36 C         142.4214  138.0975  160.2226 C.3     1  UNL1        0.0940
     37 N         141.4004  138.5155  159.2064 N.3     1  UNL1       -0.2666
     38 C         139.9532  138.6064  159.5908 C.3     1  UNL1        0.0940
     39 C         139.5272  138.2793  160.9914 C.3     1  UNL1        0.1107
@<TRIPOS>BOND
     1    31    32    1
     2    32    33    2
     3    32    34   am
     4    34    35    1
     5    35    36    1
     6    36    37    1
     7    37    30    1
     8    30    29    1
     9    29    28    1
    10    28    22    1
    11    22    23   ar
    12    23    24   ar
    13    24    25   ar
    14    25     1    1
    15     1     2    1
    16     1     3    1
    17     3     4    1
    18     4     5    1
    19     5     9    1
    20     9    10   ar
    21    10    11   ar
    22    11    12   ar
    23    12    13   ar
    24    13    14   ar
    25    14    15   ar
    26    15    18    1
    27    18    19    1
    28    18    20    1
    29    18    21    1
    30    15    16   ar
    31    16    17   ar
    32     5     6    1
    33     6     7    1
    34    25    26   ar
    35    26    27   ar
    36    37    38    1
    37    38    39    1
    38    39    34    1
    39    27    22   ar
    40     7     1    1
    41    17     9   ar
    42    16    12   ar
    43     2     8    1
@<TRIPOS>MOLECULE
*****
 39 43 0 0 0
SMALL
GASTEIGER

@<TRIPOS>ATOM
      1 C         143.5944  140.4588  162.5050 C.3     1  UNL1        0.1103
      2 O         144.9127  139.9639  161.9882 O.3     1  UNL1       -0.3826
      3 C         142.2518  141.1273  162.5312 C.3     1  UNL1        0.0526
      4 C         141.4369  141.1242  163.7905 C.3     1  UNL1        0.0950
      5 N         141.9645  140.4525  165.0236 N.pl3   1  UNL1       -0.2917
      6 C         143.3070  139.7840  164.9974 C.3     1  UNL1        0.0950
      7 C         144.1220  139.7872  163.7381 C.3     1  UNL1        0.0526
      8 H         145.0120  140.2198  161.0579 H       1  UNL1        0.2107
      9 C         141.1495  140.4493  166.2830 C.ar    1  UNL1        0.1520
     10 C         139.8929  139.6339  166.3611 C.ar    1  UNL1        0.0393
     11 C         139.0780  139.6308  167.6204 C.ar    1  UNL1        0.0436
     12 C         139.5196  140.4431  168.8015 C.ar    1  UNL1        0.1867
     13 N         138.9262  140.6354  170.1658 N.ar    1  UNL1       -0.1270
     14 N         139.8161  141.5697  170.9307 N.ar    1  UNL1       -0.1228
     15 C         140.9594  141.9548  170.0393 C.ar    1  UNL1        0.2583
     16 N         140.7761  141.2585  168.7234 N.ar    1  UNL1       -0.1866
     17 N         141.5911  141.2617  167.4641 N.ar    1  UNL1       -0.1473
     18 C         142.0879  142.8747  170.4004 C.3     1  UNL1        0.4541
     19 F         143.2163  143.7947  170.7614 F       1  UNL1       -0.1631
     20 F         141.2238  144.0591  170.0834 F       1  UNL1       -0.1631
     21 F         142.9520  141.6903  170.7173 F       1  UNL1       -0.1631
     22 C         143.3851  141.9582  158.2674 C.ar    1  UNL1        0.1386
     23 C         144.2664  142.6497  159.2649 C.ar    1  UNL1        0.0367
     24 C         144.3362  142.1499  160.6774 C.ar    1  UNL1        0.0011
     25 C         143.5246  140.9586  161.0925 C.ar    1  UNL1        0.0020
     26 C         142.6433  140.2671  160.0949 C.ar    1  UNL1        0.0011
     27 C         142.5736  140.7669  158.6823 C.ar    1  UNL1        0.0367
     28 O         143.3153  142.4579  156.8547 O.3     1  UNL1       -0.4740
     29 C         142.1130  143.2243  156.3888 C.3     1  UNL1        0.2226
     30 C         141.5640  144.3405  157.2272 C.3     1  UNL1        0.1201
     31 C         138.8305  143.7893  163.5100 C.3     1  UNL1        0.0948
     32 C         138.4806  143.1025  162.2232 C.2     1  UNL1        0.2262
     33 O         137.3599  142.1062  162.1854 O.2     1  UNL1       -0.2749
     34 N         139.2514  143.4120  160.9742 N.am    1  UNL1       -0.2767
     35 C         140.3722  144.4083  161.0120 C.3     1  UNL1        0.1107
     36 C         141.1430  144.7178  159.7630 C.3     1  UNL1        0.0940
     37 N         140.7932  144.0310  158.4762 N.3     1  UNL1       -0.2666
     38 C         139.6724  143.0347  158.4384 C.3     1  UNL1        0.0940
     39 C         138.9016  142.7252  159.6874 C.3     1  UNL1        0.1107
@<TRIPOS>BOND
     1    31    32    1
     2    32    33    2
     3    32    34   am
     4    34    35    1
     5    35    36    1
     6    36    37    1
     7    37    30    1
     8    30    29    1
     9    29    28    1
    10    28    22    1
    11    22    23   ar
    12    23    24   ar
    13    24    25   ar
    14    25     1    1
    15     1     2    1
    16     1     3    1
    17     3     4    1
    18     4     5    1
    19     5     9    1
    20     9    10   ar
    21    10    11   ar
    22    11    12   ar
    23    12    13   ar
    24    13    14   ar
    25    14    15   ar
    26    15    18    1
    27    18    19    1
    28    18    20    1
    29    18    21    1
    30    15    16   ar
    31    16    17   ar
    32     5     6    1
    33     6     7    1
    34    25    26   ar
    35    26    27   ar
    36    37    38    1
    37    38    39    1
    38    39    34    1
    39    27    22   ar
    40     7     1    1
    41    17     9   ar
    42    16    12   ar
    43     2     8    1
