@<TRIPOS>MOLECULE
*****
 31 33 0 0 0
SMALL
GASTEIGER

@<TRIPOS>ATOM
      1 C         139.0471  142.6535  162.9246 C.ar    1  UNL1        0.1572
      2 C         139.1834  143.2917  161.5740 C.ar    1  UNL1        0.0377
      3 C         139.7470  144.6765  161.4524 C.ar    1  UNL1        0.0519
      4 C         140.1742  145.4230  162.6812 C.ar    1  UNL1        0.0179
      5 C         140.0379  144.7848  164.0318 C.ar    1  UNL1        0.0402
      6 C         139.4743  143.4000  164.1534 C.ar    1  UNL1        0.1638
      7 N         137.9199  139.8840  163.1679 N.3     1  UNL1       -0.2034
      8 S         138.4835  141.2687  163.0463 S.O2    1  UNL1        0.0601
      9 O         137.0935  141.8315  163.0127 O.2     1  UNL1       -0.1531
     10 O         139.8735  140.7060  163.0798 O.2     1  UNL1       -0.1531
     11 H         138.3146  139.4273  163.9902 H       1  UNL1        0.1442
     12 H         138.1562  139.3462  162.3340 H       1  UNL1        0.1442
     13 N         139.8834  145.3147  160.1017 N.am    1  UNL1       -0.2836
     14 C         141.1674  145.1851  159.3371 C.2     1  UNL1        0.2305
     15 O         142.3150  144.4172  159.9232 O.2     1  UNL1       -0.2744
     16 H         139.1302  145.8187  159.7171 H       1  UNL1        0.1549
     17 C         141.3037  145.8233  157.9866 C.3     1  UNL1        0.1116
     18 C         140.1910  145.7089  156.9872 C.ar    1  UNL1       -0.0131
     19 C         139.6661  146.9375  156.3054 C.ar    1  UNL1       -0.0038
     20 C         138.5534  146.8231  155.3060 C.ar    1  UNL1       -0.0003
     21 C         137.9656  145.4802  154.9884 C.ar    1  UNL1       -0.0000
     22 C         138.4906  144.2515  155.6702 C.ar    1  UNL1       -0.0003
     23 C         139.6033  144.3658  156.6696 C.ar    1  UNL1       -0.0038
     24 O         139.3379  142.7618  165.5041 O.3     1  UNL1       -0.4521
     25 C         140.5461  142.5841  166.3751 C.ar    1  UNL1        0.1462
     26 C         141.8394  142.1151  165.7772 C.ar    1  UNL1        0.0375
     27 C         143.0476  141.9375  166.6483 C.ar    1  UNL1        0.0040
     28 C         142.9625  142.2289  168.1172 C.ar    1  UNL1        0.0116
     29 C         141.6692  142.6979  168.7151 C.ar    1  UNL1        0.0607
     30 CL        141.5842  142.9893  170.1840 Cl      1  UNL1       -0.0821
     31 C         140.4611  142.8755  167.8441 C.ar    1  UNL1        0.0489
@<TRIPOS>BOND
     1     7     8    1
     2     8     9    2
     3     8    10    2
     4     8     1    1
     5     1     2   ar
     6     2     3   ar
     7     3    13    1
     8    13    14   am
     9    14    15    2
    10    14    17    1
    11    17    18    1
    12    18    19   ar
    13    19    20   ar
    14    20    21   ar
    15    21    22   ar
    16    22    23   ar
    17     3     4   ar
    18     4     5   ar
    19     5     6   ar
    20     6    24    1
    21    24    25    1
    22    25    26   ar
    23    26    27   ar
    24    27    28   ar
    25    28    29   ar
    26    29    30    1
    27    29    31   ar
    28     6     1   ar
    29    31    25   ar
    30    23    18   ar
    31     7    11    1
    32     7    12    1
    33    13    16    1
@<TRIPOS>MOLECULE
*****
 31 33 0 0 0
SMALL
GASTEIGER

@<TRIPOS>ATOM
      1 C         140.5685  144.5680  160.7991 C.ar    1  UNL1        0.1572
      2 C         140.4714  145.4976  159.6260 C.ar    1  UNL1        0.0377
      3 C         141.2828  145.2352  158.3920 C.ar    1  UNL1        0.0519
      4 C         142.1913  144.0432  158.3311 C.ar    1  UNL1        0.0179
      5 C         142.2884  143.1136  159.5043 C.ar    1  UNL1        0.0402
      6 C         141.4770  143.3759  160.7383 C.ar    1  UNL1        0.1638
      7 N         138.9457  145.0927  163.2672 N.3     1  UNL1       -0.2034
      8 S         139.7571  144.8303  162.0332 S.O2    1  UNL1        0.0601
      9 O         140.8862  145.6359  162.6043 O.2     1  UNL1       -0.1531
     10 O         138.6280  144.0248  161.4620 O.2     1  UNL1       -0.1531
     11 H         138.6381  144.2061  163.6668 H       1  UNL1        0.1442
     12 H         138.1313  145.6572  163.0250 H       1  UNL1        0.1442
     13 N         141.1857  146.1649  157.2188 N.am    1  UNL1       -0.2836
     14 C         140.1666  145.9156  156.1467 C.2     1  UNL1        0.2305
     15 O         139.2446  144.7367  156.2478 O.2     1  UNL1       -0.2744
     16 H         141.7908  146.9386  157.1524 H       1  UNL1        0.1549
     17 C         140.0695  146.8452  154.9735 C.3     1  UNL1        0.1116
     18 C         139.5681  148.2458  155.1659 C.ar    1  UNL1       -0.0131
     19 C         138.7322  148.5852  156.3643 C.ar    1  UNL1       -0.0038
     20 C         138.2308  149.9858  156.5567 C.ar    1  UNL1       -0.0003
     21 C         138.5653  151.0469  155.5507 C.ar    1  UNL1       -0.0000
     22 C         139.4011  150.7075  154.3522 C.ar    1  UNL1       -0.0003
     23 C         139.9025  149.3070  154.1598 C.ar    1  UNL1       -0.0038
     24 O         141.5741  142.4463  161.9115 O.3     1  UNL1       -0.4521
     25 C         142.8796  142.2807  162.6312 C.ar    1  UNL1        0.1462
     26 C         143.8543  141.2316  162.1849 C.ar    1  UNL1        0.0375
     27 C         145.1600  141.0661  162.9047 C.ar    1  UNL1        0.0040
     28 C         145.4908  141.9497  164.0707 C.ar    1  UNL1        0.0116
     29 C         144.5161  142.9989  164.5170 C.ar    1  UNL1        0.0607
     30 CL        144.8470  143.8826  165.6830 Cl      1  UNL1       -0.0821
     31 C         143.2106  143.1644  163.7973 C.ar    1  UNL1        0.0489
@<TRIPOS>BOND
     1     7     8    1
     2     8     9    2
     3     8    10    2
     4     8     1    1
     5     1     2   ar
     6     2     3   ar
     7     3    13    1
     8    13    14   am
     9    14    15    2
    10    14    17    1
    11    17    18    1
    12    18    19   ar
    13    19    20   ar
    14    20    21   ar
    15    21    22   ar
    16    22    23   ar
    17     3     4   ar
    18     4     5   ar
    19     5     6   ar
    20     6    24    1
    21    24    25    1
    22    25    26   ar
    23    26    27   ar
    24    27    28   ar
    25    28    29   ar
    26    29    30    1
    27    29    31   ar
    28     6     1   ar
    29    31    25   ar
    30    23    18   ar
    31     7    11    1
    32     7    12    1
    33    13    16    1
@<TRIPOS>MOLECULE
*****
 31 33 0 0 0
SMALL
GASTEIGER

@<TRIPOS>ATOM
      1 C         138.5364  140.8227  163.3247 C.ar    1  UNL1        0.1572
      2 C         139.0387  141.1178  164.7069 C.ar    1  UNL1        0.0377
      3 C         139.4493  139.9939  165.6116 C.ar    1  UNL1        0.0519
      4 C         139.3574  138.5749  165.1340 C.ar    1  UNL1        0.0179
      5 C         138.8551  138.2799  163.7518 C.ar    1  UNL1        0.0402
      6 C         138.4446  139.4037  162.8472 C.ar    1  UNL1        0.1638
      7 N         137.7154  143.0704  161.5154 N.3     1  UNL1       -0.2034
      8 S         138.1259  141.9466  162.4201 S.O2    1  UNL1        0.0601
      9 O         136.7059  141.7983  162.8802 O.2     1  UNL1       -0.1531
     10 O         139.5459  142.0948  161.9599 O.2     1  UNL1       -0.1531
     11 H         138.0146  142.8660  160.5620 H       1  UNL1        0.1442
     12 H         138.1517  143.9370  161.8303 H       1  UNL1        0.1442
     13 N         139.9516  140.2890  166.9939 N.am    1  UNL1       -0.2836
     14 C         139.1960  139.7888  168.1892 C.2     1  UNL1        0.2305
     15 O         137.9380  138.9934  168.0022 O.2     1  UNL1       -0.2744
     16 H         140.7773  140.8110  167.1166 H       1  UNL1        0.1549
     17 C         139.6983  140.0839  169.5714 C.3     1  UNL1        0.1116
     18 C         140.8760  140.9928  169.7633 C.ar    1  UNL1       -0.0131
     19 C         142.2647  140.4263  169.7855 C.ar    1  UNL1       -0.0038
     20 C         143.4425  141.3351  169.9773 C.ar    1  UNL1       -0.0003
     21 C         143.2316  142.8105  170.1470 C.ar    1  UNL1       -0.0000
     22 C         141.8428  143.3770  170.1248 C.ar    1  UNL1       -0.0003
     23 C         140.6650  142.4682  169.9330 C.ar    1  UNL1       -0.0038
     24 O         137.9422  139.1086  161.4649 O.3     1  UNL1       -0.4521
     25 C         138.8768  139.1880  160.2944 C.ar    1  UNL1        0.1462
     26 C         140.2197  138.5229  160.3604 C.ar    1  UNL1        0.0375
     27 C         141.1543  138.6023  159.1898 C.ar    1  UNL1        0.0040
     28 C         140.7461  139.3468  157.9533 C.ar    1  UNL1        0.0116
     29 C         139.4032  140.0118  157.8872 C.ar    1  UNL1        0.0607
     30 CL        138.9949  140.7562  156.6507 Cl      1  UNL1       -0.0821
     31 C         138.4686  139.9324  159.0578 C.ar    1  UNL1        0.0489
@<TRIPOS>BOND
     1     7     8    1
     2     8     9    2
     3     8    10    2
     4     8     1    1
     5     1     2   ar
     6     2     3   ar
     7     3    13    1
     8    13    14   am
     9    14    15    2
    10    14    17    1
    11    17    18    1
    12    18    19   ar
    13    19    20   ar
    14    20    21   ar
    15    21    22   ar
    16    22    23   ar
    17     3     4   ar
    18     4     5   ar
    19     5     6   ar
    20     6    24    1
    21    24    25    1
    22    25    26   ar
    23    26    27   ar
    24    27    28   ar
    25    28    29   ar
    26    29    30    1
    27    29    31   ar
    28     6     1   ar
    29    31    25   ar
    30    23    18   ar
    31     7    11    1
    32     7    12    1
    33    13    16    1
@<TRIPOS>MOLECULE
*****
 31 33 0 0 0
SMALL
GASTEIGER

@<TRIPOS>ATOM
      1 C         138.6295  140.6299  163.0258 C.ar    1  UNL1        0.1572
      2 C         139.3659  140.6380  164.3326 C.ar    1  UNL1        0.0377
      3 C         139.8465  139.3491  164.9307 C.ar    1  UNL1        0.0519
      4 C         139.5908  138.0520  164.2220 C.ar    1  UNL1        0.0179
      5 C         138.8544  138.0439  162.9152 C.ar    1  UNL1        0.0402
      6 C         138.3738  139.3329  162.3172 C.ar    1  UNL1        0.1638
      7 N         137.6683  143.2077  161.8297 N.3     1  UNL1       -0.2034
      8 S         138.1489  141.9188  162.4278 S.O2    1  UNL1        0.0601
      9 O         139.4926  142.1258  161.7940 O.2     1  UNL1       -0.1531
     10 O         136.8052  141.7118  163.0615 O.2     1  UNL1       -0.1531
     11 H         137.3035  143.8099  162.5678 H       1  UNL1        0.1442
     12 H         136.9301  143.0141  161.1529 H       1  UNL1        0.1442
     13 N         140.5829  139.3572  166.2375 N.am    1  UNL1       -0.2836
     14 C         142.0768  139.2242  166.2574 C.2     1  UNL1        0.2305
     15 O         142.8344  139.0831  164.9704 O.2     1  UNL1       -0.2744
     16 H         140.0856  139.4498  167.0822 H       1  UNL1        0.1549
     17 C         142.8132  139.2324  167.5641 C.3     1  UNL1        0.1116
     18 C         142.4245  140.2049  168.6380 C.ar    1  UNL1       -0.0131
     19 C         141.6222  139.7394  169.8168 C.ar    1  UNL1       -0.0038
     20 C         141.2335  140.7118  170.8907 C.ar    1  UNL1       -0.0003
     21 C         141.6472  142.1498  170.7858 C.ar    1  UNL1       -0.0000
     22 C         142.4495  142.6154  169.6070 C.ar    1  UNL1       -0.0003
     23 C         142.8382  141.6429  168.5331 C.ar    1  UNL1       -0.0038
     24 O         137.6374  139.3247  161.0103 O.3     1  UNL1       -0.4521
     25 C         138.3879  139.5133  159.7254 C.ar    1  UNL1        0.1462
     26 C         137.9668  140.5820  158.7607 C.ar    1  UNL1        0.0375
     27 C         138.7174  140.7705  157.4757 C.ar    1  UNL1        0.0040
     28 C         139.8890  139.8904  157.1554 C.ar    1  UNL1        0.0116
     29 C         140.3102  138.8218  158.1201 C.ar    1  UNL1        0.0607
     30 CL        141.4818  137.9417  157.7998 Cl      1  UNL1       -0.0821
     31 C         139.5597  138.6332  159.4050 C.ar    1  UNL1        0.0489
@<TRIPOS>BOND
     1     7     8    1
     2     8     9    2
     3     8    10    2
     4     8     1    1
     5     1     2   ar
     6     2     3   ar
     7     3    13    1
     8    13    14   am
     9    14    15    2
    10    14    17    1
    11    17    18    1
    12    18    19   ar
    13    19    20   ar
    14    20    21   ar
    15    21    22   ar
    16    22    23   ar
    17     3     4   ar
    18     4     5   ar
    19     5     6   ar
    20     6    24    1
    21    24    25    1
    22    25    26   ar
    23    26    27   ar
    24    27    28   ar
    25    28    29   ar
    26    29    30    1
    27    29    31   ar
    28     6     1   ar
    29    31    25   ar
    30    23    18   ar
    31     7    11    1
    32     7    12    1
    33    13    16    1
@<TRIPOS>MOLECULE
*****
 31 33 0 0 0
SMALL
GASTEIGER

@<TRIPOS>ATOM
      1 C         140.2789  139.0574  163.0264 C.ar    1  UNL1        0.1572
      2 C         140.5273  139.4194  164.4607 C.ar    1  UNL1        0.0377
      3 C         139.5603  140.3052  165.1889 C.ar    1  UNL1        0.0519
      4 C         138.3450  140.8291  164.4828 C.ar    1  UNL1        0.0179
      5 C         138.0967  140.4671  163.0485 C.ar    1  UNL1        0.0402
      6 C         139.0636  139.5812  162.3203 C.ar    1  UNL1        0.1638
      7 N         142.2128  137.2857  161.5700 N.3     1  UNL1       -0.2034
      8 S         141.2459  138.1715  162.2982 S.O2    1  UNL1        0.0601
      9 O         140.5258  136.9612  162.8144 O.2     1  UNL1       -0.1531
     10 O         141.9660  139.3819  161.7819 O.2     1  UNL1       -0.1531
     11 H         143.1657  137.5243  161.8446 H       1  UNL1        0.1442
     12 H         142.1052  137.4191  160.5645 H       1  UNL1        0.1442
     13 N         139.8087  140.6672  166.6232 N.am    1  UNL1       -0.2836
     14 C         139.1403  139.8912  167.7191 C.2     1  UNL1        0.2305
     15 O         138.2234  138.7532  167.3807 O.2     1  UNL1       -0.2744
     16 H         140.4104  141.4141  166.8453 H       1  UNL1        0.1549
     17 C         139.3886  140.2532  169.1534 C.3     1  UNL1        0.1116
     18 C         140.5519  141.1282  169.5156 C.ar    1  UNL1       -0.0131
     19 C         141.9250  140.5374  169.6392 C.ar    1  UNL1       -0.0038
     20 C         143.0882  141.4124  170.0013 C.ar    1  UNL1       -0.0003
     21 C         142.8783  142.8784  170.2398 C.ar    1  UNL1       -0.0000
     22 C         141.5051  143.4693  170.1162 C.ar    1  UNL1       -0.0003
     23 C         140.3419  142.5942  169.7541 C.ar    1  UNL1       -0.0038
     24 O         138.8153  139.2193  160.8859 O.3     1  UNL1       -0.4521
     25 C         138.8193  140.2862  159.8316 C.ar    1  UNL1        0.1462
     26 C         139.8789  141.3478  159.8429 C.ar    1  UNL1        0.0375
     27 C         139.8829  142.4148  158.7886 C.ar    1  UNL1        0.0040
     28 C         138.8273  142.4201  157.7229 C.ar    1  UNL1        0.0116
     29 C         137.7676  141.3585  157.7116 C.ar    1  UNL1        0.0607
     30 CL        136.7120  141.3638  156.6460 Cl      1  UNL1       -0.0821
     31 C         137.7636  140.2915  158.7659 C.ar    1  UNL1        0.0489
@<TRIPOS>BOND
     1     7     8    1
     2     8     9    2
     3     8    10    2
     4     8     1    1
     5     1     2   ar
     6     2     3   ar
     7     3    13    1
     8    13    14   am
     9    14    15    2
    10    14    17    1
    11    17    18    1
    12    18    19   ar
    13    19    20   ar
    14    20    21   ar
    15    21    22   ar
    16    22    23   ar
    17     3     4   ar
    18     4     5   ar
    19     5     6   ar
    20     6    24    1
    21    24    25    1
    22    25    26   ar
    23    26    27   ar
    24    27    28   ar
    25    28    29   ar
    26    29    30    1
    27    29    31   ar
    28     6     1   ar
    29    31    25   ar
    30    23    18   ar
    31     7    11    1
    32     7    12    1
    33    13    16    1
@<TRIPOS>MOLECULE
*****
 31 33 0 0 0
SMALL
GASTEIGER

@<TRIPOS>ATOM
      1 C         142.4727  143.4456  162.1579 C.ar    1  UNL1        0.1572
      2 C         142.0317  142.8236  163.4496 C.ar    1  UNL1        0.0377
      3 C         140.6657  143.1169  163.9955 C.ar    1  UNL1        0.0519
      4 C         139.7406  144.0322  163.2496 C.ar    1  UNL1        0.0179
      5 C         140.1816  144.6543  161.9579 C.ar    1  UNL1        0.0402
      6 C         141.5476  144.3610  161.4120 C.ar    1  UNL1        0.1638
      7 N         145.2047  142.8590  161.0662 N.3     1  UNL1       -0.2034
      8 S         143.8387  143.1523  161.6121 S.O2    1  UNL1        0.0601
      9 O         144.3772  144.3680  162.3064 O.2     1  UNL1       -0.1531
     10 O         143.3002  141.9366  160.9177 O.2     1  UNL1       -0.1531
     11 H         145.1545  142.7758  160.0509 H       1  UNL1        0.1442
     12 H         145.5486  141.9843  161.4625 H       1  UNL1        0.1442
     13 N         140.2247  142.4948  165.2872 N.am    1  UNL1       -0.2836
     14 C         139.7010  141.0893  165.3025 C.2     1  UNL1        0.2305
     15 O         139.6183  140.3058  164.0259 O.2     1  UNL1       -0.2744
     16 H         140.2791  143.0090  166.1250 H       1  UNL1        0.1549
     17 C         139.2601  140.4672  166.5942 C.3     1  UNL1        0.1116
     18 C         140.2747  140.1115  167.6402 C.ar    1  UNL1       -0.0131
     19 C         139.8910  140.1186  169.0902 C.ar    1  UNL1       -0.0038
     20 C         140.9056  139.7630  170.1363 C.ar    1  UNL1       -0.0003
     21 C         142.3038  139.4003  169.7322 C.ar    1  UNL1       -0.0000
     22 C         142.6876  139.3932  168.2821 C.ar    1  UNL1       -0.0003
     23 C         141.6730  139.7488  167.2361 C.ar    1  UNL1       -0.0038
     24 O         141.9886  144.9831  160.1202 O.3     1  UNL1       -0.4521
     25 C         141.2120  144.7296  158.8622 C.ar    1  UNL1        0.1462
     26 C         140.9459  143.3226  158.4157 C.ar    1  UNL1        0.0375
     27 C         140.1693  143.0692  157.1576 C.ar    1  UNL1        0.0040
     28 C         139.6589  144.2228  156.3461 C.ar    1  UNL1        0.0116
     29 C         139.9250  145.6299  156.7926 C.ar    1  UNL1        0.0607
     30 CL        139.4146  146.7835  155.9811 Cl      1  UNL1       -0.0821
     31 C         140.7015  145.8833  158.0506 C.ar    1  UNL1        0.0489
@<TRIPOS>BOND
     1     7     8    1
     2     8     9    2
     3     8    10    2
     4     8     1    1
     5     1     2   ar
     6     2     3   ar
     7     3    13    1
     8    13    14   am
     9    14    15    2
    10    14    17    1
    11    17    18    1
    12    18    19   ar
    13    19    20   ar
    14    20    21   ar
    15    21    22   ar
    16    22    23   ar
    17     3     4   ar
    18     4     5   ar
    19     5     6   ar
    20     6    24    1
    21    24    25    1
    22    25    26   ar
    23    26    27   ar
    24    27    28   ar
    25    28    29   ar
    26    29    30    1
    27    29    31   ar
    28     6     1   ar
    29    31    25   ar
    30    23    18   ar
    31     7    11    1
    32     7    12    1
    33    13    16    1
@<TRIPOS>MOLECULE
*****
 31 33 0 0 0
SMALL
GASTEIGER

@<TRIPOS>ATOM
      1 C         138.8609  140.7657  163.0296 C.ar    1  UNL1        0.1572
      2 C         139.1927  141.0515  164.4642 C.ar    1  UNL1        0.0377
      3 C         139.7832  139.9753  165.3262 C.ar    1  UNL1        0.0519
      4 C         140.0419  138.6133  164.7537 C.ar    1  UNL1        0.0179
      5 C         139.7101  138.3274  163.3191 C.ar    1  UNL1        0.0402
      6 C         139.1196  139.4036  162.4570 C.ar    1  UNL1        0.1638
      7 N         137.6799  142.9181  161.3055 N.3     1  UNL1       -0.2034
      8 S         138.2704  141.8419  162.1676 S.O2    1  UNL1        0.0601
      9 O         139.6460  142.2366  161.7181 O.2     1  UNL1       -0.1531
     10 O         136.8948  141.4471  162.6170 O.2     1  UNL1       -0.1531
     11 H         137.0867  143.5221  161.8744 H       1  UNL1        0.1442
     12 H         137.1217  142.4928  160.5653 H       1  UNL1        0.1442
     13 N         140.1151  140.2612  166.7609 N.am    1  UNL1       -0.2836
     14 C         139.2257  139.7460  167.8534 C.2     1  UNL1        0.2305
     15 O         138.0045  138.9449  167.5113 O.2     1  UNL1       -0.2744
     16 H         140.9166  140.7870  166.9854 H       1  UNL1        0.1549
     17 C         139.5575  140.0319  169.2880 C.3     1  UNL1        0.1116
     18 C         140.6140  141.0414  169.6267 C.ar    1  UNL1       -0.0131
     19 C         140.2601  142.4964  169.7151 C.ar    1  UNL1       -0.0038
     20 C         141.3166  143.5060  170.0538 C.ar    1  UNL1       -0.0003
     21 C         142.7268  143.0606  170.3041 C.ar    1  UNL1       -0.0000
     22 C         143.0807  141.6055  170.2158 C.ar    1  UNL1       -0.0003
     23 C         142.0243  140.5960  169.8771 C.ar    1  UNL1       -0.0038
     24 O         138.7877  139.1177  161.0223 O.3     1  UNL1       -0.4521
     25 C         139.8823  139.0456  159.9994 C.ar    1  UNL1        0.1462
     26 C         139.5659  138.6433  158.5894 C.ar    1  UNL1        0.0375
     27 C         140.6606  138.5712  157.5664 C.ar    1  UNL1        0.0040
     28 C         142.0717  138.9015  157.9533 C.ar    1  UNL1        0.0116
     29 C         142.3881  139.3038  159.3633 C.ar    1  UNL1        0.0607
     30 CL        143.7992  139.6341  159.7503 Cl      1  UNL1       -0.0821
     31 C         141.2935  139.3759  160.3863 C.ar    1  UNL1        0.0489
@<TRIPOS>BOND
     1     7     8    1
     2     8     9    2
     3     8    10    2
     4     8     1    1
     5     1     2   ar
     6     2     3   ar
     7     3    13    1
     8    13    14   am
     9    14    15    2
    10    14    17    1
    11    17    18    1
    12    18    19   ar
    13    19    20   ar
    14    20    21   ar
    15    21    22   ar
    16    22    23   ar
    17     3     4   ar
    18     4     5   ar
    19     5     6   ar
    20     6    24    1
    21    24    25    1
    22    25    26   ar
    23    26    27   ar
    24    27    28   ar
    25    28    29   ar
    26    29    30    1
    27    29    31   ar
    28     6     1   ar
    29    31    25   ar
    30    23    18   ar
    31     7    11    1
    32     7    12    1
    33    13    16    1
@<TRIPOS>MOLECULE
*****
 31 33 0 0 0
SMALL
GASTEIGER

@<TRIPOS>ATOM
      1 C         143.9108  140.7177  162.8638 C.ar    1  UNL1        0.1572
      2 C         143.4138  140.8808  164.2696 C.ar    1  UNL1        0.0377
      3 C         142.7347  139.7368  164.9626 C.ar    1  UNL1        0.0519
      4 C         142.5526  138.4297  164.2497 C.ar    1  UNL1        0.0179
      5 C         143.0496  138.2666  162.8439 C.ar    1  UNL1        0.0402
      6 C         143.7287  139.4106  162.1509 C.ar    1  UNL1        0.1638
      7 N         145.2689  143.0057  161.4780 N.3     1  UNL1       -0.2034
      8 S         144.5899  141.8617  162.1709 S.O2    1  UNL1        0.0601
      9 O         145.9045  141.4339  162.7529 O.2     1  UNL1       -0.1531
     10 O         143.2752  142.2895  161.5889 O.2     1  UNL1       -0.1531
     11 H         144.8071  143.8791  161.7314 H       1  UNL1        0.1442
     12 H         145.2139  142.8725  160.4682 H       1  UNL1        0.1442
     13 N         142.2378  139.9000  166.3685 N.am    1  UNL1       -0.2836
     14 C         142.8565  139.1048  167.4797 C.2     1  UNL1        0.2305
     15 O         143.9722  138.1464  167.1850 O.2     1  UNL1       -0.2744
     16 H         141.5055  140.5290  166.5618 H       1  UNL1        0.1549
     17 C         142.3596  139.2679  168.8855 C.3     1  UNL1        0.1116
     18 C         141.6971  140.5473  169.3031 C.ar    1  UNL1       -0.0131
     19 C         142.4997  141.8108  169.3994 C.ar    1  UNL1       -0.0038
     20 C         141.8373  143.0901  169.8170 C.ar    1  UNL1       -0.0003
     21 C         140.3722  143.1060  170.1384 C.ar    1  UNL1       -0.0000
     22 C         139.5695  141.8424  170.0421 C.ar    1  UNL1       -0.0003
     23 C         140.2320  140.5631  169.6245 C.ar    1  UNL1       -0.0038
     24 O         144.2257  139.2474  160.7450 O.3     1  UNL1       -0.4521
     25 C         143.3036  139.5010  159.5894 C.ar    1  UNL1        0.1462
     26 C         143.6371  140.5617  158.5826 C.ar    1  UNL1        0.0375
     27 C         142.7149  140.8153  157.4269 C.ar    1  UNL1        0.0040
     28 C         141.4594  140.0081  157.2782 C.ar    1  UNL1        0.0116
     29 C         141.1259  138.9475  158.2850 C.ar    1  UNL1        0.0607
     30 CL        139.8704  138.1403  158.1363 Cl      1  UNL1       -0.0821
     31 C         142.0480  138.6939  159.4406 C.ar    1  UNL1        0.0489
@<TRIPOS>BOND
     1     7     8    1
     2     8     9    2
     3     8    10    2
     4     8     1    1
     5     1     2   ar
     6     2     3   ar
     7     3    13    1
     8    13    14   am
     9    14    15    2
    10    14    17    1
    11    17    18    1
    12    18    19   ar
    13    19    20   ar
    14    20    21   ar
    15    21    22   ar
    16    22    23   ar
    17     3     4   ar
    18     4     5   ar
    19     5     6   ar
    20     6    24    1
    21    24    25    1
    22    25    26   ar
    23    26    27   ar
    24    27    28   ar
    25    28    29   ar
    26    29    30    1
    27    29    31   ar
    28     6     1   ar
    29    31    25   ar
    30    23    18   ar
    31     7    11    1
    32     7    12    1
    33    13    16    1
@<TRIPOS>MOLECULE
*****
 31 33 0 0 0
SMALL
GASTEIGER

@<TRIPOS>ATOM
      1 C         140.9354  138.7238  162.3012 C.ar    1  UNL1        0.1572
      2 C         141.5207  138.0316  161.1061 C.ar    1  UNL1        0.0377
      3 C         142.5426  138.7313  160.2599 C.ar    1  UNL1        0.0519
      4 C         142.9792  140.1232  160.6088 C.ar    1  UNL1        0.0179
      5 C         142.3940  140.8155  161.8039 C.ar    1  UNL1        0.0402
      6 C         141.3721  140.1158  162.6501 C.ar    1  UNL1        0.1638
      7 N         138.8916  137.3244  163.9937 N.3     1  UNL1       -0.2034
      8 S         139.9135  138.0241  163.1474 S.O2    1  UNL1        0.0601
      9 O         138.8237  138.5288  162.2487 O.2     1  UNL1       -0.1531
     10 O         141.0033  137.5194  164.0461 O.2     1  UNL1       -0.1531
     11 H         138.9932  137.6210  164.9643 H       1  UNL1        0.1442
     12 H         139.0304  136.3158  163.9300 H       1  UNL1        0.1442
     13 N         143.1278  138.0390  159.0648 N.am    1  UNL1       -0.2836
     14 C         142.2815  137.7944  157.8507 C.2     1  UNL1        0.2305
     15 O         140.8500  138.2422  157.8318 O.2     1  UNL1       -0.2744
     16 H         144.0674  137.7451  159.0772 H       1  UNL1        0.1549
     17 C         142.8667  137.1022  156.6556 C.3     1  UNL1        0.1116
     18 C         142.6303  135.6355  156.4480 C.ar    1  UNL1       -0.0131
     19 C         143.3876  134.6308  157.2646 C.ar    1  UNL1       -0.0038
     20 C         143.1512  133.1642  157.0570 C.ar    1  UNL1       -0.0003
     21 C         142.1574  132.7023  156.0329 C.ar    1  UNL1       -0.0000
     22 C         141.3999  133.7070  155.2163 C.ar    1  UNL1       -0.0003
     23 C         141.6364  135.1737  155.4238 C.ar    1  UNL1       -0.0038
     24 O         140.7868  140.8081  163.8452 O.3     1  UNL1       -0.4521
     25 C         139.7910  141.9141  163.6582 C.ar    1  UNL1        0.1462
     26 C         138.9881  141.9946  162.3938 C.ar    1  UNL1        0.0375
     27 C         137.9923  143.1007  162.2068 C.ar    1  UNL1        0.0040
     28 C         137.7995  144.1263  163.2843 C.ar    1  UNL1        0.0116
     29 C         138.6024  144.0459  164.5487 C.ar    1  UNL1        0.0607
     30 CL        138.4096  145.0714  165.6261 Cl      1  UNL1       -0.0821
     31 C         139.5982  142.9398  164.7357 C.ar    1  UNL1        0.0489
@<TRIPOS>BOND
     1     7     8    1
     2     8     9    2
     3     8    10    2
     4     8     1    1
     5     1     2   ar
     6     2     3   ar
     7     3    13    1
     8    13    14   am
     9    14    15    2
    10    14    17    1
    11    17    18    1
    12    18    19   ar
    13    19    20   ar
    14    20    21   ar
    15    21    22   ar
    16    22    23   ar
    17     3     4   ar
    18     4     5   ar
    19     5     6   ar
    20     6    24    1
    21    24    25    1
    22    25    26   ar
    23    26    27   ar
    24    27    28   ar
    25    28    29   ar
    26    29    30    1
    27    29    31   ar
    28     6     1   ar
    29    31    25   ar
    30    23    18   ar
    31     7    11    1
    32     7    12    1
    33    13    16    1
