@<TRIPOS>MOLECULE
*****
 40 44 0 0 0
SMALL
GASTEIGER

@<TRIPOS>ATOM
      1 C         139.0660  142.2896  162.6286 C.2     1  UNL1        0.2440
      2 O         139.0330  143.7859  162.5286 O.2     1  UNL1       -0.2731
      3 N         140.0247  141.5024  161.7852 N.am    1  UNL1       -0.2780
      4 C         140.1711  140.0096  161.7768 C.3     1  UNL1        0.0953
      5 C         141.2422  139.6545  160.7886 C.3     1  UNL1        0.0442
      6 C         141.7577  140.9277  160.1863 C.3     1  UNL1        0.0579
      7 C         141.0053  142.0698  160.8022 C.3     1  UNL1        0.0968
      8 C         142.4170  142.0623  159.4594 C.3     1  UNL1        0.0941
      9 N         143.2833  141.0856  158.7206 N.pl3   1  UNL1       -0.3072
     10 C         142.6240  139.9511  159.4475 C.3     1  UNL1        0.0941
     11 C         144.3619  141.1972  157.6843 C.ar    1  UNL1        0.0524
     12 C         145.4272  142.2445  157.8203 C.ar    1  UNL1        0.0443
     13 C         146.5058  142.3561  156.7839 C.ar    1  UNL1        0.1436
     14 F         147.5711  143.4034  156.9199 F       1  UNL1       -0.2041
     15 C         146.5193  141.4204  155.6116 C.ar    1  UNL1        0.0593
     16 C         145.4541  140.3732  155.4757 C.ar    1  UNL1        0.1436
     17 F         145.4675  139.4375  154.3033 F       1  UNL1       -0.2041
     18 C         144.3754  140.2616  156.5120 C.ar    1  UNL1        0.0443
     19 N         136.7100  141.3460  163.1846 N.3     1  UNL1       -0.3116
     20 C         138.1400  141.5804  163.5719 C.3     1  UNL1        0.1514
     21 H         136.5419  141.7310  162.2552 H       1  UNL1        0.1195
     22 H         136.0959  141.8036  163.8583 H       1  UNL1        0.1195
     23 C         138.6442  141.1058  164.9025 C.ar    1  UNL1        0.0007
     24 C         138.1551  139.8060  165.4696 C.ar    1  UNL1        0.0006
     25 C         138.6593  139.3313  166.8002 C.ar    1  UNL1        0.0363
     26 C         139.6525  140.1564  167.5637 C.ar    1  UNL1        0.1337
     27 O         140.1566  139.6816  168.8943 O.3     1  UNL1       -0.5055
     28 C         140.1415  141.4561  166.9966 C.ar    1  UNL1        0.0363
     29 C         139.6373  141.9308  165.6660 C.ar    1  UNL1        0.0006
     30 H         139.8511  138.8698  169.2486 H       1  UNL1        0.2922
     31 C         141.7148  138.2692  160.4604 C.3     1  UNL1        0.0888
     32 N         142.5098  137.4901  161.4658 N.pl3   1  UNL1       -0.3326
     33 H         142.9307  136.6384  161.2074 H       1  UNL1        0.1468
     34 C         142.6636  138.0085  162.8649 C.ar    1  UNL1        0.0448
     35 C         141.6562  137.6441  163.9148 C.ar    1  UNL1        0.0166
     36 C         141.8099  138.1626  165.3139 C.ar    1  UNL1        0.0309
     37 C         142.9712  139.0454  165.6632 C.ar    1  UNL1        0.1402
     38 F         143.1250  139.5639  167.0624 F       1  UNL1       -0.2042
     39 C         143.9787  139.4098  164.6133 C.ar    1  UNL1        0.0309
     40 C         143.8249  138.8914  163.2142 C.ar    1  UNL1        0.0166
@<TRIPOS>BOND
     1    20    19    1
     2    20     1    1
     3     1     2    2
     4     1     3   am
     5     3     4    1
     6     4     5    1
     7     5    31    1
     8    31    32    1
     9    32    34    1
    10    34    35   ar
    11    35    36   ar
    12    36    37   ar
    13    37    38    1
    14    37    39   ar
    15    39    40   ar
    16     5     6    1
    17     6     7    1
    18     6     8    1
    19     8     9    1
    20     9    11    1
    21    11    12   ar
    22    12    13   ar
    23    13    14    1
    24    13    15   ar
    25    15    16   ar
    26    16    17    1
    27    16    18   ar
    28     9    10    1
    29    20    23    1
    30    23    24   ar
    31    24    25   ar
    32    25    26   ar
    33    26    27    1
    34    26    28   ar
    35    28    29   ar
    36     7     3    1
    37    18    11   ar
    38    29    23   ar
    39    40    34   ar
    40    10     6    1
    41    19    21    1
    42    19    22    1
    43    32    33    1
    44    27    30    1
@<TRIPOS>MOLECULE
*****
 40 44 0 0 0
SMALL
GASTEIGER

@<TRIPOS>ATOM
      1 C         138.7354  142.2959  162.0081 C.2     1  UNL1        0.2440
      2 O         138.1795  143.4829  161.2786 O.2     1  UNL1       -0.2731
      3 N         139.9627  141.6053  161.4916 N.am    1  UNL1       -0.2780
      4 C         140.6301  140.4132  162.1108 C.3     1  UNL1        0.0953
      5 C         141.8180  140.0568  161.2670 C.3     1  UNL1        0.0442
      6 C         141.8847  141.0286  160.1265 C.3     1  UNL1        0.0579
      7 C         140.7382  141.9857  160.2652 C.3     1  UNL1        0.0968
      8 C         142.1427  141.8805  158.9190 C.3     1  UNL1        0.0941
      9 N         143.3445  141.0464  158.5873 N.pl3   1  UNL1       -0.3072
     10 C         143.0865  140.1945  159.7947 C.3     1  UNL1        0.0941
     11 C         144.3767  141.0590  157.4989 C.ar    1  UNL1        0.0524
     12 C         144.3393  140.0199  156.4178 C.ar    1  UNL1        0.0443
     13 C         145.3715  140.0325  155.3295 C.ar    1  UNL1        0.1436
     14 F         145.3341  138.9933  154.2484 F       1  UNL1       -0.2041
     15 C         146.4410  141.0841  155.3223 C.ar    1  UNL1        0.0593
     16 C         146.4783  142.1232  156.4034 C.ar    1  UNL1        0.1436
     17 F         147.5479  143.1750  156.3962 F       1  UNL1       -0.2041
     18 C         145.4462  142.1107  157.4917 C.ar    1  UNL1        0.0443
     19 N         136.6604  141.2738  163.1913 N.3     1  UNL1       -0.3116
     20 C         138.0639  141.7995  163.2542 C.3     1  UNL1        0.1514
     21 H         136.3200  141.3274  162.2313 H       1  UNL1        0.1195
     22 H         136.0601  141.8336  163.7967 H       1  UNL1        0.1195
     23 C         138.7958  141.8290  164.5632 C.ar    1  UNL1        0.0007
     24 C         139.4508  143.0959  165.0278 C.ar    1  UNL1        0.0006
     25 C         140.1827  143.1253  166.3368 C.ar    1  UNL1        0.0363
     26 C         140.2595  141.8879  167.1811 C.ar    1  UNL1        0.1337
     27 O         140.9915  141.9174  168.4902 O.3     1  UNL1       -0.5055
     28 C         139.6045  140.6210  166.7165 C.ar    1  UNL1        0.0363
     29 C         138.8726  140.5916  165.4075 C.ar    1  UNL1        0.0006
     30 H         141.4007  142.7088  168.7804 H       1  UNL1        0.2922
     31 C         142.7716  138.9268  161.5196 C.3     1  UNL1        0.0888
     32 N         143.5020  138.8398  162.8269 N.pl3   1  UNL1       -0.3326
     33 H         143.7236  137.9602  163.2093 H       1  UNL1        0.1468
     34 C         143.8949  140.0932  163.5514 C.ar    1  UNL1        0.0448
     35 C         143.1266  140.5312  164.7629 C.ar    1  UNL1        0.0166
     36 C         143.5194  141.7845  165.4875 C.ar    1  UNL1        0.0309
     37 C         144.6804  142.5998  165.0005 C.ar    1  UNL1        0.1402
     38 F         145.0733  143.8531  165.7250 F       1  UNL1       -0.2042
     39 C         145.4488  142.1617  163.7888 C.ar    1  UNL1        0.0309
     40 C         145.0559  140.9084  163.0643 C.ar    1  UNL1        0.0166
@<TRIPOS>BOND
     1    20    19    1
     2    20     1    1
     3     1     2    2
     4     1     3   am
     5     3     4    1
     6     4     5    1
     7     5    31    1
     8    31    32    1
     9    32    34    1
    10    34    35   ar
    11    35    36   ar
    12    36    37   ar
    13    37    38    1
    14    37    39   ar
    15    39    40   ar
    16     5     6    1
    17     6     7    1
    18     6     8    1
    19     8     9    1
    20     9    11    1
    21    11    12   ar
    22    12    13   ar
    23    13    14    1
    24    13    15   ar
    25    15    16   ar
    26    16    17    1
    27    16    18   ar
    28     9    10    1
    29    20    23    1
    30    23    24   ar
    31    24    25   ar
    32    25    26   ar
    33    26    27    1
    34    26    28   ar
    35    28    29   ar
    36     7     3    1
    37    18    11   ar
    38    29    23   ar
    39    40    34   ar
    40    10     6    1
    41    19    21    1
    42    19    22    1
    43    32    33    1
    44    27    30    1
@<TRIPOS>MOLECULE
*****
 40 44 0 0 0
SMALL
GASTEIGER

@<TRIPOS>ATOM
      1 C         138.6413  138.8016  164.7613 C.2     1  UNL1        0.2440
      2 O         138.8677  137.4683  164.1123 O.2     1  UNL1       -0.2731
      3 N         138.5334  140.0375  163.9182 N.am    1  UNL1       -0.2780
      4 C         138.3089  141.4322  164.4227 C.3     1  UNL1        0.0953
      5 C         138.2679  142.3524  163.2389 C.3     1  UNL1        0.0442
      6 C         138.4670  141.5265  162.0027 C.3     1  UNL1        0.0579
      7 C         138.6312  140.0959  162.4225 C.3     1  UNL1        0.0968
      8 C         138.6469  140.9040  160.6498 C.3     1  UNL1        0.0941
      9 N         138.5092  142.2540  160.0105 N.pl3   1  UNL1       -0.3072
     10 C         138.3293  142.8764  161.3634 C.3     1  UNL1        0.0941
     11 C         138.5390  142.7684  158.6017 C.ar    1  UNL1        0.0524
     12 C         137.4551  142.3828  157.6394 C.ar    1  UNL1        0.0443
     13 C         137.4849  142.8972  156.2306 C.ar    1  UNL1        0.1436
     14 F         136.4008  142.5115  155.2682 F       1  UNL1       -0.2041
     15 C         138.5987  143.7973  155.7843 C.ar    1  UNL1        0.0593
     16 C         139.6826  144.1830  156.7467 C.ar    1  UNL1        0.1436
     17 F         140.7965  145.0831  156.3004 F       1  UNL1       -0.2041
     18 C         139.6528  143.6686  158.1554 C.ar    1  UNL1        0.0443
     19 N         137.2772  138.4212  166.9396 N.3     1  UNL1       -0.3116
     20 C         138.5227  138.8989  166.2535 C.3     1  UNL1        0.1514
     21 H         136.6217  138.0642  166.2444 H       1  UNL1        0.1195
     22 H         136.8484  139.1969  167.4445 H       1  UNL1        0.1195
     23 C         139.6496  139.4737  167.0595 C.ar    1  UNL1        0.0007
     24 C         139.3780  140.0727  168.4077 C.ar    1  UNL1        0.0006
     25 C         140.5048  140.6475  169.2137 C.ar    1  UNL1        0.0363
     26 C         141.9033  140.6234  168.6716 C.ar    1  UNL1        0.1337
     27 O         143.0302  141.1983  169.4777 O.3     1  UNL1       -0.5055
     28 C         142.1748  140.0244  167.3235 C.ar    1  UNL1        0.0363
     29 C         141.0479  139.4496  166.5174 C.ar    1  UNL1        0.0006
     30 H         142.8605  141.5724  170.3199 H       1  UNL1        0.2922
     31 C         138.0635  143.8377  163.2834 C.3     1  UNL1        0.0888
     32 N         138.9156  144.6854  164.1808 N.pl3   1  UNL1       -0.3326
     33 H         138.5079  145.4145  164.7020 H       1  UNL1        0.1468
     34 C         140.3887  144.4224  164.2842 C.ar    1  UNL1        0.0448
     35 C         141.3500  145.1931  163.4287 C.ar    1  UNL1        0.0166
     36 C         142.8232  144.9301  163.5320 C.ar    1  UNL1        0.0309
     37 C         143.3351  143.8964  164.4909 C.ar    1  UNL1        0.1402
     38 F         144.8082  143.6334  164.5943 F       1  UNL1       -0.2042
     39 C         142.3737  143.1257  165.3465 C.ar    1  UNL1        0.0309
     40 C         140.9006  143.3887  165.2431 C.ar    1  UNL1        0.0166
@<TRIPOS>BOND
     1    20    19    1
     2    20     1    1
     3     1     2    2
     4     1     3   am
     5     3     4    1
     6     4     5    1
     7     5    31    1
     8    31    32    1
     9    32    34    1
    10    34    35   ar
    11    35    36   ar
    12    36    37   ar
    13    37    38    1
    14    37    39   ar
    15    39    40   ar
    16     5     6    1
    17     6     7    1
    18     6     8    1
    19     8     9    1
    20     9    11    1
    21    11    12   ar
    22    12    13   ar
    23    13    14    1
    24    13    15   ar
    25    15    16   ar
    26    16    17    1
    27    16    18   ar
    28     9    10    1
    29    20    23    1
    30    23    24   ar
    31    24    25   ar
    32    25    26   ar
    33    26    27    1
    34    26    28   ar
    35    28    29   ar
    36     7     3    1
    37    18    11   ar
    38    29    23   ar
    39    40    34   ar
    40    10     6    1
    41    19    21    1
    42    19    22    1
    43    32    33    1
    44    27    30    1
@<TRIPOS>MOLECULE
*****
 40 44 0 0 0
SMALL
GASTEIGER

@<TRIPOS>ATOM
      1 C         144.2265  143.0371  163.9097 C.2     1  UNL1        0.2440
      2 O         145.3453  142.3790  163.1579 O.2     1  UNL1       -0.2731
      3 N         143.0586  143.6124  163.1647 N.am    1  UNL1       -0.2780
      4 C         141.8726  144.2967  163.7771 C.3     1  UNL1        0.0953
      5 C         140.9527  144.7116  162.6673 C.3     1  UNL1        0.0442
      6 C         141.5702  144.2838  161.3691 C.3     1  UNL1        0.0579
      7 C         142.8717  143.6045  161.6764 C.3     1  UNL1        0.0968
      8 C         141.9975  143.9512  159.9701 C.3     1  UNL1        0.0941
      9 N         140.7473  144.5863  159.4374 N.pl3   1  UNL1       -0.3072
     10 C         140.3201  144.9189  160.8363 C.3     1  UNL1        0.0941
     11 C         140.1654  144.8003  158.0715 C.ar    1  UNL1        0.0524
     12 C         140.3547  146.1141  157.3730 C.ar    1  UNL1        0.0443
     13 C         139.7729  146.3281  156.0071 C.ar    1  UNL1        0.1436
     14 F         139.9622  147.6420  155.3086 F       1  UNL1       -0.2041
     15 C         139.0017  145.2282  155.3397 C.ar    1  UNL1        0.0593
     16 C         138.8124  143.9143  156.0382 C.ar    1  UNL1        0.1436
     17 F         138.0412  142.8143  155.3707 F       1  UNL1       -0.2041
     18 C         139.3943  143.7004  157.4040 C.ar    1  UNL1        0.0443
     19 N         145.2007  144.0943  166.0739 N.3     1  UNL1       -0.3116
     20 C         144.2757  143.1200  165.4067 C.3     1  UNL1        0.1514
     21 H         145.7163  144.6145  165.3640 H       1  UNL1        0.1195
     22 H         145.8571  143.5878  166.6680 H       1  UNL1        0.1195
     23 C         143.4000  142.2285  166.2363 C.ar    1  UNL1        0.0007
     24 C         142.7977  140.9952  165.6312 C.ar    1  UNL1        0.0006
     25 C         141.9220  140.1037  166.4609 C.ar    1  UNL1        0.0363
     26 C         141.6485  140.4456  167.8956 C.ar    1  UNL1        0.1337
     27 O         140.7727  139.5540  168.7252 O.3     1  UNL1       -0.5055
     28 C         142.2508  141.6789  168.5006 C.ar    1  UNL1        0.0363
     29 C         143.1265  142.5704  167.6710 C.ar    1  UNL1        0.0006
     30 H         140.3965  138.7836  168.3473 H       1  UNL1        0.2922
     31 C         139.6449  145.4284  162.8277 C.3     1  UNL1        0.0888
     32 N         138.5257  144.7851  163.5917 N.pl3   1  UNL1       -0.3326
     33 H         137.8700  145.3439  164.0681 H       1  UNL1        0.1468
     34 C         138.4057  143.2904  163.6299 C.ar    1  UNL1        0.0448
     35 C         138.8359  142.5344  164.8519 C.ar    1  UNL1        0.0166
     36 C         138.7159  141.0397  164.8901 C.ar    1  UNL1        0.0309
     37 C         138.1657  140.3010  163.7063 C.ar    1  UNL1        0.1402
     38 F         138.0457  138.8063  163.7444 F       1  UNL1       -0.2042
     39 C         137.7355  141.0570  162.4841 C.ar    1  UNL1        0.0309
     40 C         137.8555  142.5517  162.4460 C.ar    1  UNL1        0.0166
@<TRIPOS>BOND
     1    20    19    1
     2    20     1    1
     3     1     2    2
     4     1     3   am
     5     3     4    1
     6     4     5    1
     7     5    31    1
     8    31    32    1
     9    32    34    1
    10    34    35   ar
    11    35    36   ar
    12    36    37   ar
    13    37    38    1
    14    37    39   ar
    15    39    40   ar
    16     5     6    1
    17     6     7    1
    18     6     8    1
    19     8     9    1
    20     9    11    1
    21    11    12   ar
    22    12    13   ar
    23    13    14    1
    24    13    15   ar
    25    15    16   ar
    26    16    17    1
    27    16    18   ar
    28     9    10    1
    29    20    23    1
    30    23    24   ar
    31    24    25   ar
    32    25    26   ar
    33    26    27    1
    34    26    28   ar
    35    28    29   ar
    36     7     3    1
    37    18    11   ar
    38    29    23   ar
    39    40    34   ar
    40    10     6    1
    41    19    21    1
    42    19    22    1
    43    32    33    1
    44    27    30    1
@<TRIPOS>MOLECULE
*****
 40 44 0 0 0
SMALL
GASTEIGER

@<TRIPOS>ATOM
      1 C         139.8423  138.5191  162.2738 C.2     1  UNL1        0.2440
      2 O         138.6895  137.9354  161.5121 O.2     1  UNL1       -0.2731
      3 N         140.5085  139.7705  161.7836 N.am    1  UNL1       -0.2780
      4 C         141.6658  140.4668  162.4361 C.3     1  UNL1        0.0953
      5 C         142.0069  141.6719  161.6105 C.3     1  UNL1        0.0442
      6 C         141.0604  141.7203  160.4480 C.3     1  UNL1        0.0579
      7 C         140.1343  140.5453  160.5549 C.3     1  UNL1        0.0968
      8 C         140.2297  141.9640  159.2229 C.3     1  UNL1        0.0941
      9 N         141.0358  143.1924  158.9206 N.pl3   1  UNL1       -0.3072
     10 C         141.8665  142.9488  160.1457 C.3     1  UNL1        0.0941
     11 C         141.0184  144.2332  157.8407 C.ar    1  UNL1        0.0524
     12 C         140.0695  145.3914  157.9305 C.ar    1  UNL1        0.0443
     13 C         140.0521  146.4323  156.8505 C.ar    1  UNL1        0.1436
     14 F         139.1031  147.5905  156.9404 F       1  UNL1       -0.2041
     15 C         140.9835  146.3149  155.6807 C.ar    1  UNL1        0.0593
     16 C         141.9324  145.1567  155.5909 C.ar    1  UNL1        0.1436
     17 F         142.8640  145.0393  154.4210 F       1  UNL1       -0.2041
     18 C         141.9498  144.1159  156.6708 C.ar    1  UNL1        0.0443
     19 N         141.2372  136.6610  163.4365 N.3     1  UNL1       -0.3116
     20 C         140.3289  137.8514  163.5258 C.3     1  UNL1        0.1514
     21 H         141.4190  136.4448  162.4564 H       1  UNL1        0.1195
     22 H         140.7926  135.8598  163.8846 H       1  UNL1        0.1195
     23 C         139.9073  138.3742  164.8670 C.ar    1  UNL1        0.0007
     24 C         138.5358  138.0702  165.3931 C.ar    1  UNL1        0.0006
     25 C         138.1142  138.5930  166.7343 C.ar    1  UNL1        0.0363
     26 C         139.0640  139.4197  167.5495 C.ar    1  UNL1        0.1337
     27 O         138.6423  139.9425  168.8908 O.3     1  UNL1       -0.5055
     28 C         140.4355  139.7236  167.0234 C.ar    1  UNL1        0.0363
     29 C         140.8571  139.2008  165.6822 C.ar    1  UNL1        0.0006
     30 H         137.7856  139.7526  169.2194 H       1  UNL1        0.2922
     31 C         143.1022  142.6558  161.8974 C.3     1  UNL1        0.0888
     32 N         143.0815  143.4518  163.1686 N.pl3   1  UNL1       -0.3326
     33 H         143.9269  143.7355  163.5856 H       1  UNL1        0.1468
     34 C         141.7725  143.8155  163.8044 C.ar    1  UNL1        0.0448
     35 C         140.8979  144.8596  163.1761 C.ar    1  UNL1        0.0166
     36 C         139.5889  145.2234  163.8119 C.ar    1  UNL1        0.0309
     37 C         139.1545  144.5430  165.0761 C.ar    1  UNL1        0.1402
     38 F         137.8455  144.9068  165.7120 F       1  UNL1       -0.2042
     39 C         140.0291  143.4988  165.7046 C.ar    1  UNL1        0.0309
     40 C         141.3381  143.1351  165.0687 C.ar    1  UNL1        0.0166
@<TRIPOS>BOND
     1    20    19    1
     2    20     1    1
     3     1     2    2
     4     1     3   am
     5     3     4    1
     6     4     5    1
     7     5    31    1
     8    31    32    1
     9    32    34    1
    10    34    35   ar
    11    35    36   ar
    12    36    37   ar
    13    37    38    1
    14    37    39   ar
    15    39    40   ar
    16     5     6    1
    17     6     7    1
    18     6     8    1
    19     8     9    1
    20     9    11    1
    21    11    12   ar
    22    12    13   ar
    23    13    14    1
    24    13    15   ar
    25    15    16   ar
    26    16    17    1
    27    16    18   ar
    28     9    10    1
    29    20    23    1
    30    23    24   ar
    31    24    25   ar
    32    25    26   ar
    33    26    27    1
    34    26    28   ar
    35    28    29   ar
    36     7     3    1
    37    18    11   ar
    38    29    23   ar
    39    40    34   ar
    40    10     6    1
    41    19    21    1
    42    19    22    1
    43    32    33    1
    44    27    30    1
@<TRIPOS>MOLECULE
*****
 40 44 0 0 0
SMALL
GASTEIGER

@<TRIPOS>ATOM
      1 C         144.1396  140.9741  161.8888 C.2     1  UNL1        0.2440
      2 O         144.4527  139.7665  161.0558 O.2     1  UNL1       -0.2731
      3 N         143.1463  141.9859  161.3994 N.am    1  UNL1       -0.2780
      4 C         142.7340  143.2361  162.1185 C.3     1  UNL1        0.0953
      5 C         141.7238  143.9481  161.2685 C.3     1  UNL1        0.0442
      6 C         141.5118  143.1379  160.0240 C.3     1  UNL1        0.0579
      7 C         142.3909  141.9253  160.1049 C.3     1  UNL1        0.0968
      8 C         141.1470  142.4961  158.7183 C.3     1  UNL1        0.0941
      9 N         140.1991  143.6222  158.4295 N.pl3   1  UNL1       -0.3072
     10 C         140.5639  144.2641  159.7353 C.3     1  UNL1        0.0941
     11 C         139.2709  143.9647  157.3020 C.ar    1  UNL1        0.0524
     12 C         139.4928  145.2131  156.5007 C.ar    1  UNL1        0.0443
     13 C         138.5646  145.5555  155.3733 C.ar    1  UNL1        0.1436
     14 F         138.7865  146.8040  154.5719 F       1  UNL1       -0.2041
     15 C         137.4145  144.6495  155.0471 C.ar    1  UNL1        0.0593
     16 C         137.1926  143.4011  155.8485 C.ar    1  UNL1        0.1436
     17 F         136.0424  142.4950  155.5223 F       1  UNL1       -0.2041
     18 C         138.1208  143.0587  156.9759 C.ar    1  UNL1        0.0443
     19 N         146.1828  141.7936  163.2687 N.3     1  UNL1       -0.3116
     20 C         144.8199  141.1697  163.2114 C.3     1  UNL1        0.1514
     21 H         146.4926  142.0211  162.3238 H       1  UNL1        0.1195
     22 H         146.8392  141.1383  163.6931 H       1  UNL1        0.1195
     23 C         144.1373  140.7415  164.4765 C.ar    1  UNL1        0.0007
     24 C         143.5656  141.7710  165.4057 C.ar    1  UNL1        0.0006
     25 C         142.8830  141.3427  166.6708 C.ar    1  UNL1        0.0363
     26 C         142.7721  139.8851  167.0068 C.ar    1  UNL1        0.1337
     27 O         142.0894  139.4568  168.2720 O.3     1  UNL1       -0.5055
     28 C         143.3438  138.8556  166.0776 C.ar    1  UNL1        0.0363
     29 C         144.0264  139.2839  164.8125 C.ar    1  UNL1        0.0006
     30 H         141.7323  140.0999  168.8525 H       1  UNL1        0.2922
     31 C         141.0449  145.2428  161.6040 C.3     1  UNL1        0.0888
     32 N         140.2631  145.3717  162.8777 N.pl3   1  UNL1       -0.3326
     33 H         140.1747  146.2496  163.3143 H       1  UNL1        0.1468
     34 C         139.6161  144.1629  163.4861 C.ar    1  UNL1        0.0448
     35 C         140.2154  143.5244  164.7039 C.ar    1  UNL1        0.0166
     36 C         139.5684  142.3156  165.3124 C.ar    1  UNL1        0.0309
     37 C         138.3220  141.7453  164.7031 C.ar    1  UNL1        0.1402
     38 F         137.6750  140.5366  165.3116 F       1  UNL1       -0.2042
     39 C         137.7226  142.3839  163.4852 C.ar    1  UNL1        0.0309
     40 C         138.3697  143.5927  162.8768 C.ar    1  UNL1        0.0166
@<TRIPOS>BOND
     1    20    19    1
     2    20     1    1
     3     1     2    2
     4     1     3   am
     5     3     4    1
     6     4     5    1
     7     5    31    1
     8    31    32    1
     9    32    34    1
    10    34    35   ar
    11    35    36   ar
    12    36    37   ar
    13    37    38    1
    14    37    39   ar
    15    39    40   ar
    16     5     6    1
    17     6     7    1
    18     6     8    1
    19     8     9    1
    20     9    11    1
    21    11    12   ar
    22    12    13   ar
    23    13    14    1
    24    13    15   ar
    25    15    16   ar
    26    16    17    1
    27    16    18   ar
    28     9    10    1
    29    20    23    1
    30    23    24   ar
    31    24    25   ar
    32    25    26   ar
    33    26    27    1
    34    26    28   ar
    35    28    29   ar
    36     7     3    1
    37    18    11   ar
    38    29    23   ar
    39    40    34   ar
    40    10     6    1
    41    19    21    1
    42    19    22    1
    43    32    33    1
    44    27    30    1
@<TRIPOS>MOLECULE
*****
 40 44 0 0 0
SMALL
GASTEIGER

@<TRIPOS>ATOM
      1 C         139.8211  143.5497  162.6067 C.2     1  UNL1        0.2440
      2 O         138.7785  144.0141  161.6334 O.2     1  UNL1       -0.2731
      3 N         141.1219  142.9961  162.1051 N.am    1  UNL1       -0.2780
      4 C         142.2528  142.4955  162.9539 C.3     1  UNL1        0.0953
      5 C         143.3499  142.0359  162.0400 C.3     1  UNL1        0.0442
      6 C         142.8970  142.2524  160.6266 C.3     1  UNL1        0.0579
      7 C         141.5200  142.8458  160.6668 C.3     1  UNL1        0.0968
      8 C         142.6531  142.3797  159.1520 C.3     1  UNL1        0.0941
      9 N         144.0088  141.7990  158.8777 N.pl3   1  UNL1       -0.3072
     10 C         144.2526  141.6717  160.3523 C.3     1  UNL1        0.0941
     11 C         144.7949  141.4783  157.6411 C.ar    1  UNL1        0.0524
     12 C         144.4715  140.2492  156.8444 C.ar    1  UNL1        0.0443
     13 C         145.2576  139.9286  155.6078 C.ar    1  UNL1        0.1436
     14 F         144.9341  138.6994  154.8112 F       1  UNL1       -0.2041
     15 C         146.3671  140.8370  155.1678 C.ar    1  UNL1        0.0593
     16 C         146.6905  142.0661  155.9644 C.ar    1  UNL1        0.1436
     17 F         147.8000  142.9747  155.5245 F       1  UNL1       -0.2041
     18 C         145.9044  142.3868  157.2011 C.ar    1  UNL1        0.0443
     19 N         139.5428  144.9769  164.7598 N.3     1  UNL1       -0.3116
     20 C         139.5629  143.6391  164.0816 C.3     1  UNL1        0.1514
     21 H         139.7219  145.7091  164.0727 H       1  UNL1        0.1195
     22 H         140.2638  145.0035  165.4808 H       1  UNL1        0.1195
     23 C         139.3249  142.3907  164.8784 C.ar    1  UNL1        0.0007
     24 C         138.3837  141.3415  164.3650 C.ar    1  UNL1        0.0006
     25 C         138.1457  140.0931  165.1617 C.ar    1  UNL1        0.0363
     26 C         138.8487  139.8938  166.4717 C.ar    1  UNL1        0.1337
     27 O         138.6106  138.6453  167.2684 O.3     1  UNL1       -0.5055
     28 C         139.7899  140.9430  166.9850 C.ar    1  UNL1        0.0363
     29 C         140.0279  142.1914  166.1883 C.ar    1  UNL1        0.0006
     30 H         138.0227  137.9899  166.9478 H       1  UNL1        0.2922
     31 C         144.6685  141.4608  162.4651 C.3     1  UNL1        0.0888
     32 N         144.7876  139.9946  162.7583 N.pl3   1  UNL1       -0.3326
     33 H         145.6314  139.5224  162.5728 H       1  UNL1        0.1468
     34 C         143.6212  139.2476  163.3342 C.ar    1  UNL1        0.0448
     35 C         143.3085  139.3575  164.7971 C.ar    1  UNL1        0.0166
     36 C         142.1421  138.6107  165.3730 C.ar    1  UNL1        0.0309
     37 C         141.2883  137.7539  164.4859 C.ar    1  UNL1        0.1402
     38 F         140.1219  137.0069  165.0618 F       1  UNL1       -0.2042
     39 C         141.6010  137.6439  163.0229 C.ar    1  UNL1        0.0309
     40 C         142.7674  138.3908  162.4471 C.ar    1  UNL1        0.0166
@<TRIPOS>BOND
     1    20    19    1
     2    20     1    1
     3     1     2    2
     4     1     3   am
     5     3     4    1
     6     4     5    1
     7     5    31    1
     8    31    32    1
     9    32    34    1
    10    34    35   ar
    11    35    36   ar
    12    36    37   ar
    13    37    38    1
    14    37    39   ar
    15    39    40   ar
    16     5     6    1
    17     6     7    1
    18     6     8    1
    19     8     9    1
    20     9    11    1
    21    11    12   ar
    22    12    13   ar
    23    13    14    1
    24    13    15   ar
    25    15    16   ar
    26    16    17    1
    27    16    18   ar
    28     9    10    1
    29    20    23    1
    30    23    24   ar
    31    24    25   ar
    32    25    26   ar
    33    26    27    1
    34    26    28   ar
    35    28    29   ar
    36     7     3    1
    37    18    11   ar
    38    29    23   ar
    39    40    34   ar
    40    10     6    1
    41    19    21    1
    42    19    22    1
    43    32    33    1
    44    27    30    1
@<TRIPOS>MOLECULE
*****
 40 44 0 0 0
SMALL
GASTEIGER

@<TRIPOS>ATOM
      1 C         144.1519  143.1561  162.4541 C.2     1  UNL1        0.2440
      2 O         144.4242  144.6188  162.6447 O.2     1  UNL1       -0.2731
      3 N         143.1721  142.7051  161.4117 N.am    1  UNL1       -0.2780
      4 C         142.7996  141.2842  161.1079 C.3     1  UNL1        0.0953
      5 C         141.7901  141.2967  159.9986 C.3     1  UNL1        0.0442
      6 C         141.5387  142.7253  159.6168 C.3     1  UNL1        0.0579
      7 C         142.3928  143.5957  160.4901 C.3     1  UNL1        0.0968
      8 C         141.1372  144.0659  159.0765 C.3     1  UNL1        0.0941
      9 N         140.2087  143.3969  158.1067 N.pl3   1  UNL1       -0.3072
     10 C         140.6103  142.0564  158.6469 C.3     1  UNL1        0.0941
     11 C         139.2683  143.8717  157.0389 C.ar    1  UNL1        0.0524
     12 C         139.5467  145.1527  156.3098 C.ar    1  UNL1        0.0443
     13 C         138.6062  145.6275  155.2420 C.ar    1  UNL1        0.1436
     14 F         138.8847  146.9085  154.5128 F       1  UNL1       -0.2041
     15 C         137.3874  144.8215  154.9034 C.ar    1  UNL1        0.0593
     16 C         137.1090  143.5405  155.6326 C.ar    1  UNL1        0.1436
     17 F         135.8901  142.7344  155.2940 F       1  UNL1       -0.2041
     18 C         138.0494  143.0657  156.7003 C.ar    1  UNL1        0.0443
     19 N         146.2809  141.7722  163.0039 N.3     1  UNL1       -0.3116
     20 C         144.8596  142.1444  163.3060 C.3     1  UNL1        0.1514
     21 H         146.6053  142.2990  162.1930 H       1  UNL1        0.1195
     22 H         146.3358  140.7733  162.8047 H       1  UNL1        0.1195
     23 C         144.1459  141.5049  164.4600 C.ar    1  UNL1        0.0007
     24 C         144.0548  140.0104  164.5503 C.ar    1  UNL1        0.0006
     25 C         143.3411  139.3709  165.7042 C.ar    1  UNL1        0.0363
     26 C         142.7185  140.2259  166.7679 C.ar    1  UNL1        0.1337
     27 O         142.0048  139.5864  167.9219 O.3     1  UNL1       -0.5055
     28 C         142.8096  141.7204  166.6776 C.ar    1  UNL1        0.0363
     29 C         143.5233  142.3599  165.5236 C.ar    1  UNL1        0.0006
     30 H         141.9479  138.6528  167.9783 H       1  UNL1        0.2922
     31 C         141.1451  140.0921  159.3797 C.3     1  UNL1        0.0888
     32 N         141.3919  138.7297  159.9567 N.pl3   1  UNL1       -0.3326
     33 H         141.9979  138.1035  159.4986 H       1  UNL1        0.1468
     34 C         140.7153  138.3213  161.2316 C.ar    1  UNL1        0.0448
     35 C         139.2211  138.3911  161.3435 C.ar    1  UNL1        0.0166
     36 C         138.5445  137.9828  162.6184 C.ar    1  UNL1        0.0309
     37 C         139.3621  137.5046  163.7815 C.ar    1  UNL1        0.1402
     38 F         138.6855  137.0962  165.0565 F       1  UNL1       -0.2042
     39 C         140.8563  137.4347  163.6697 C.ar    1  UNL1        0.0309
     40 C         141.5329  137.8431  162.3948 C.ar    1  UNL1        0.0166
@<TRIPOS>BOND
     1    20    19    1
     2    20     1    1
     3     1     2    2
     4     1     3   am
     5     3     4    1
     6     4     5    1
     7     5    31    1
     8    31    32    1
     9    32    34    1
    10    34    35   ar
    11    35    36   ar
    12    36    37   ar
    13    37    38    1
    14    37    39   ar
    15    39    40   ar
    16     5     6    1
    17     6     7    1
    18     6     8    1
    19     8     9    1
    20     9    11    1
    21    11    12   ar
    22    12    13   ar
    23    13    14    1
    24    13    15   ar
    25    15    16   ar
    26    16    17    1
    27    16    18   ar
    28     9    10    1
    29    20    23    1
    30    23    24   ar
    31    24    25   ar
    32    25    26   ar
    33    26    27    1
    34    26    28   ar
    35    28    29   ar
    36     7     3    1
    37    18    11   ar
    38    29    23   ar
    39    40    34   ar
    40    10     6    1
    41    19    21    1
    42    19    22    1
    43    32    33    1
    44    27    30    1
@<TRIPOS>MOLECULE
*****
 40 44 0 0 0
SMALL
GASTEIGER

@<TRIPOS>ATOM
      1 C         140.5191  138.1396  157.0913 C.2     1  UNL1        0.2440
      2 O         139.0778  138.2912  156.7044 O.2     1  UNL1       -0.2731
      3 N         140.9187  138.2042  158.5357 N.am    1  UNL1       -0.2780
      4 C         142.3134  138.0704  159.0714 C.3     1  UNL1        0.0953
      5 C         142.2505  138.1974  160.5647 C.3     1  UNL1        0.0442
      6 C         140.8170  138.4096  160.9518 C.3     1  UNL1        0.0579
      7 C         139.9939  138.4138  159.6979 C.3     1  UNL1        0.0968
      8 C         139.4635  138.6293  161.5602 C.3     1  UNL1        0.0941
      9 N         140.0825  138.6599  162.9262 N.pl3   1  UNL1       -0.3072
     10 C         141.4360  138.4402  162.3178 C.3     1  UNL1        0.0941
     11 C         139.5632  138.8369  164.3223 C.ar    1  UNL1        0.0524
     12 C         139.8735  140.0909  165.0846 C.ar    1  UNL1        0.0443
     13 C         139.3542  140.2679  166.4806 C.ar    1  UNL1        0.1436
     14 F         139.6644  141.5220  167.2429 F       1  UNL1       -0.2041
     15 C         138.5246  139.1908  167.1144 C.ar    1  UNL1        0.0593
     16 C         138.2144  137.9368  166.3522 C.ar    1  UNL1        0.1436
     17 F         137.3849  136.8596  166.9860 F       1  UNL1       -0.2041
     18 C         138.7337  137.7598  164.9561 C.ar    1  UNL1        0.0443
     19 N         142.1524  139.0983  155.3127 N.3     1  UNL1       -0.3116
     20 C         141.5607  137.9235  156.0338 C.3     1  UNL1        0.1514
     21 H         141.7344  139.9593  155.6652 H       1  UNL1        0.1195
     22 H         141.9650  139.0136  154.3137 H       1  UNL1        0.1195
     23 C         142.0107  136.5327  155.6974 C.ar    1  UNL1        0.0007
     24 C         143.3186  136.0199  156.2232 C.ar    1  UNL1        0.0006
     25 C         143.7686  134.6291  155.8868 C.ar    1  UNL1        0.0363
     26 C         142.9107  133.7512  155.0246 C.ar    1  UNL1        0.1337
     27 O         143.3608  132.3604  154.6882 O.3     1  UNL1       -0.5055
     28 C         141.6029  134.2641  154.4988 C.ar    1  UNL1        0.0363
     29 C         141.1529  135.6549  154.8352 C.ar    1  UNL1        0.0006
     30 H         144.1778  132.0400  155.0166 H       1  UNL1        0.2922
     31 C         143.4164  138.1248  161.5056 C.3     1  UNL1        0.0888
     32 N         144.5407  139.1104  161.3841 N.pl3   1  UNL1       -0.3326
     33 H         145.2786  138.9402  160.7551 H       1  UNL1        0.1468
     34 C         144.5406  140.3552  162.2211 C.ar    1  UNL1        0.0448
     35 C         144.5137  140.2529  163.7173 C.ar    1  UNL1        0.0166
     36 C         144.5136  141.4977  164.5544 C.ar    1  UNL1        0.0309
     37 C         144.5404  142.8447  163.8951 C.ar    1  UNL1        0.1402
     38 F         144.5403  144.0895  164.7321 F       1  UNL1       -0.2042
     39 C         144.5672  142.9470  162.3988 C.ar    1  UNL1        0.0309
     40 C         144.5673  141.7022  161.5618 C.ar    1  UNL1        0.0166
@<TRIPOS>BOND
     1    20    19    1
     2    20     1    1
     3     1     2    2
     4     1     3   am
     5     3     4    1
     6     4     5    1
     7     5    31    1
     8    31    32    1
     9    32    34    1
    10    34    35   ar
    11    35    36   ar
    12    36    37   ar
    13    37    38    1
    14    37    39   ar
    15    39    40   ar
    16     5     6    1
    17     6     7    1
    18     6     8    1
    19     8     9    1
    20     9    11    1
    21    11    12   ar
    22    12    13   ar
    23    13    14    1
    24    13    15   ar
    25    15    16   ar
    26    16    17    1
    27    16    18   ar
    28     9    10    1
    29    20    23    1
    30    23    24   ar
    31    24    25   ar
    32    25    26   ar
    33    26    27    1
    34    26    28   ar
    35    28    29   ar
    36     7     3    1
    37    18    11   ar
    38    29    23   ar
    39    40    34   ar
    40    10     6    1
    41    19    21    1
    42    19    22    1
    43    32    33    1
    44    27    30    1
