@<TRIPOS>MOLECULE
*****
 36 38 0 0 0
SMALL
GASTEIGER

@<TRIPOS>ATOM
      1 C         139.6396  138.2146  162.5258 C.ar    1  UNL1        0.0504
      2 C         138.7281  138.2197  161.3345 C.ar    1  UNL1        0.0147
      3 C         139.2984  138.3616  159.9544 C.ar    1  UNL1        0.0014
      4 C         140.7801  138.4984  159.7655 C.ar    1  UNL1        0.0043
      5 C         141.3503  138.6402  158.3854 C.ar    1  UNL1        0.0208
      6 C         142.8321  138.7770  158.1966 C.ar    1  UNL1        0.1003
      7 N         143.7437  138.7719  159.3878 N.ar    1  UNL1       -0.2291
      8 C         143.1734  138.6300  160.7680 C.ar    1  UNL1        0.1322
      9 C         141.6916  138.4933  160.9568 C.ar    1  UNL1        0.0330
     10 C         141.1214  138.3514  162.3369 C.ar    1  UNL1        0.0174
     11 C         138.6820  139.2936  164.6865 C.2     1  UNL1        0.2261
     12 O         138.8648  140.6564  164.0870 O.2     1  UNL1       -0.2748
     13 N         139.0694  138.0727  163.9059 N.am    1  UNL1       -0.2839
     14 H         138.9494  137.1783  164.2993 H       1  UNL1        0.1549
     15 C         138.1118  139.1517  166.0666 C.3     1  UNL1        0.0854
     16 C         138.9382  139.5247  167.2616 C.3     1  UNL1        0.0096
     17 C         140.3567  139.9775  167.0806 C.3     1  UNL1        0.0005
     18 C         140.6868  141.4404  167.1119 C.3     1  UNL1        0.0005
     19 C         141.7823  141.9431  168.0048 C.3     1  UNL1        0.0096
     20 C         142.6974  140.9714  168.6891 C.3     1  UNL1        0.0871
     21 O         143.3804  139.6531  170.8212 O.2     1  UNL1       -0.2730
     22 C         142.3961  140.5132  170.0853 C.2     1  UNL1        0.2443
     23 N         141.1106  140.9150  170.7455 N.am    1  UNL1       -0.1970
     24 O         140.8093  140.4568  172.1417 O.3     1  UNL1       -0.2952
     25 H         140.4646  141.4794  170.2625 H       1  UNL1        0.1822
     26 H         141.5433  139.9138  172.4693 H       1  UNL1        0.2414
     27 N         144.0849  138.6249  161.9592 N.pl3   1  UNL1       -0.2962
     28 H         144.6020  137.8167  162.1799 H       1  UNL1        0.1537
     29 C         144.2086  139.8512  162.8142 C.ar    1  UNL1        0.0772
     30 C         144.7332  141.1268  162.2246 C.ar    1  UNL1        0.0174
     31 C         144.8569  142.3530  163.0796 C.ar    1  UNL1        0.0081
     32 C         144.4560  142.3037  164.5242 C.ar    1  UNL1        0.0369
     33 BR        144.5797  143.5300  165.3792 Br      1  UNL1       -0.0489
     34 C         143.9314  141.0281  165.1138 C.ar    1  UNL1        0.0376
     35 C         143.8077  139.8019  164.2588 C.ar    1  UNL1        0.1539
     36 F         143.2831  138.5262  164.8484 F       1  UNL1       -0.2028
@<TRIPOS>BOND
     1    21    22    2
     2    22    20    1
     3    20    19    1
     4    19    18    1
     5    18    17    1
     6    17    16    1
     7    16    15    1
     8    15    11    1
     9    11    12    2
    10    11    13   am
    11    13     1    1
    12     1     2   ar
    13     2     3   ar
    14     3     4   ar
    15     4     5   ar
    16     5     6   ar
    17     6     7   ar
    18     7     8   ar
    19     8    27    1
    20    27    29    1
    21    29    30   ar
    22    30    31   ar
    23    31    32   ar
    24    32    33    1
    25    32    34   ar
    26    34    35   ar
    27    35    36    1
    28     8     9   ar
    29     9    10   ar
    30    22    23   am
    31    23    24    1
    32    10     1   ar
    33     9     4   ar
    34    35    29   ar
    35    13    14    1
    36    27    28    1
    37    23    25    1
    38    24    26    1
@<TRIPOS>MOLECULE
*****
 36 38 0 0 0
SMALL
GASTEIGER

@<TRIPOS>ATOM
      1 C         143.5211  142.4460  163.0589 C.ar    1  UNL1        0.0504
      2 C         143.9090  142.7665  161.6458 C.ar    1  UNL1        0.0147
      3 C         143.0592  143.6918  160.8263 C.ar    1  UNL1        0.0014
      4 C         141.8216  144.2967  161.4199 C.ar    1  UNL1        0.0043
      5 C         140.9718  145.2221  160.6004 C.ar    1  UNL1        0.0208
      6 C         139.7342  145.8269  161.1940 C.ar    1  UNL1        0.1003
      7 N         139.3463  145.5064  162.6071 N.ar    1  UNL1       -0.2291
      8 C         140.1960  144.5811  163.4266 C.ar    1  UNL1        0.1322
      9 C         141.4337  143.9762  162.8330 C.ar    1  UNL1        0.0330
     10 C         142.2835  143.0508  163.6525 C.ar    1  UNL1        0.0174
     11 C         144.2776  140.0376  163.6733 C.2     1  UNL1        0.2261
     12 O         143.3346  139.4800  162.6487 O.2     1  UNL1       -0.2748
     13 N         144.3709  141.5206  163.8784 N.am    1  UNL1       -0.2839
     14 H         144.9898  141.8866  164.5508 H       1  UNL1        0.1549
     15 C         145.1274  139.1123  164.4928 C.3     1  UNL1        0.0854
     16 C         144.5499  138.4360  165.7008 C.3     1  UNL1        0.0096
     17 C         143.1147  138.6631  166.0731 C.3     1  UNL1        0.0005
     18 C         142.7522  139.7623  167.0272 C.3     1  UNL1        0.0005
     19 C         142.7275  139.4965  168.5032 C.3     1  UNL1        0.0096
     20 C         142.4784  140.6214  169.4638 C.3     1  UNL1        0.0871
     21 O         141.5950  141.3634  171.7917 O.2     1  UNL1       -0.2730
     22 C         141.5451  140.4260  170.6217 C.2     1  UNL1        0.2443
     23 N         140.5620  139.2932  170.6097 N.am    1  UNL1       -0.1970
     24 O         139.6287  139.0978  171.7677 O.3     1  UNL1       -0.2952
     25 H         140.5292  138.6779  169.8419 H       1  UNL1        0.1822
     26 H         139.7911  139.7844  172.4333 H       1  UNL1        0.2414
     27 N         139.8082  144.2606  164.8397 N.pl3   1  UNL1       -0.2962
     28 H         139.8189  144.9669  165.5254 H       1  UNL1        0.1537
     29 C         139.4040  142.8638  165.2081 C.ar    1  UNL1        0.0772
     30 C         138.4243  142.1163  164.3529 C.ar    1  UNL1        0.0174
     31 C         138.0201  140.7196  164.7213 C.ar    1  UNL1        0.0081
     32 C         138.5956  140.0703  165.9449 C.ar    1  UNL1        0.0369
     33 BR        138.1914  138.6735  166.3133 Br      1  UNL1       -0.0489
     34 C         139.5753  140.8178  166.8002 C.ar    1  UNL1        0.0376
     35 C         139.9795  142.2145  166.4317 C.ar    1  UNL1        0.1539
     36 F         140.9592  142.9621  167.2870 F       1  UNL1       -0.2028
@<TRIPOS>BOND
     1    21    22    2
     2    22    20    1
     3    20    19    1
     4    19    18    1
     5    18    17    1
     6    17    16    1
     7    16    15    1
     8    15    11    1
     9    11    12    2
    10    11    13   am
    11    13     1    1
    12     1     2   ar
    13     2     3   ar
    14     3     4   ar
    15     4     5   ar
    16     5     6   ar
    17     6     7   ar
    18     7     8   ar
    19     8    27    1
    20    27    29    1
    21    29    30   ar
    22    30    31   ar
    23    31    32   ar
    24    32    33    1
    25    32    34   ar
    26    34    35   ar
    27    35    36    1
    28     8     9   ar
    29     9    10   ar
    30    22    23   am
    31    23    24    1
    32    10     1   ar
    33     9     4   ar
    34    35    29   ar
    35    13    14    1
    36    27    28    1
    37    23    25    1
    38    24    26    1
@<TRIPOS>MOLECULE
*****
 36 38 0 0 0
SMALL
GASTEIGER

@<TRIPOS>ATOM
      1 C         139.7239  142.0410  164.8633 C.ar    1  UNL1        0.0504
      2 C         139.2470  143.4593  164.9679 C.ar    1  UNL1        0.0147
      3 C         140.1626  144.5878  164.5960 C.ar    1  UNL1        0.0014
      4 C         141.5550  144.2979  164.1195 C.ar    1  UNL1        0.0043
      5 C         142.4706  145.4264  163.7476 C.ar    1  UNL1        0.0208
      6 C         143.8630  145.1365  163.2710 C.ar    1  UNL1        0.1003
      7 N         144.3399  143.7181  163.1664 N.ar    1  UNL1       -0.2291
      8 C         143.4244  142.5897  163.5383 C.ar    1  UNL1        0.1322
      9 C         142.0319  142.8796  164.0149 C.ar    1  UNL1        0.0330
     10 C         141.1163  141.7512  164.3868 C.ar    1  UNL1        0.0174
     11 C         139.0952  140.0839  166.4521 C.2     1  UNL1        0.2261
     12 O         140.2977  140.3837  167.2973 O.2     1  UNL1       -0.2748
     13 N         138.8083  140.9126  165.2352 N.am    1  UNL1       -0.2839
     14 H         138.0191  140.7158  164.6806 H       1  UNL1        0.1549
     15 C         138.1796  138.9555  166.8241 C.3     1  UNL1        0.0854
     16 C         138.1660  137.6994  166.0042 C.3     1  UNL1        0.0096
     17 C         139.2452  137.4527  164.9921 C.3     1  UNL1        0.0005
     18 C         138.9167  137.4596  163.5286 C.3     1  UNL1        0.0005
     19 C         139.0266  138.7316  162.7412 C.3     1  UNL1        0.0096
     20 C         137.8151  139.3023  162.0652 C.3     1  UNL1        0.0871
     21 O         136.9581  141.6087  162.8994 O.2     1  UNL1       -0.2730
     22 C         137.6884  140.7854  161.8801 C.2     1  UNL1        0.2443
     23 N         138.2920  141.4452  160.6759 N.am    1  UNL1       -0.1970
     24 O         138.1653  142.9283  160.4908 O.3     1  UNL1       -0.2952
     25 H         138.7713  140.9048  160.0069 H       1  UNL1        0.1822
     26 H         137.6684  143.3056  161.2336 H       1  UNL1        0.2414
     27 N         143.9012  141.1714  163.4337 N.pl3   1  UNL1       -0.2962
     28 H         144.4296  140.7746  164.1635 H       1  UNL1        0.1537
     29 C         143.5729  140.3575  162.2172 C.ar    1  UNL1        0.0772
     30 C         143.9157  140.8770  160.8524 C.ar    1  UNL1        0.0174
     31 C         143.5875  140.0631  159.6359 C.ar    1  UNL1        0.0081
     32 C         142.9164  138.7298  159.7842 C.ar    1  UNL1        0.0369
     33 BR        142.5882  137.9160  158.5677 Br      1  UNL1       -0.0489
     34 C         142.5736  138.2104  161.1490 C.ar    1  UNL1        0.0376
     35 C         142.9019  139.0242  162.3654 C.ar    1  UNL1        0.1539
     36 F         142.5591  138.5048  163.7303 F       1  UNL1       -0.2028
@<TRIPOS>BOND
     1    21    22    2
     2    22    20    1
     3    20    19    1
     4    19    18    1
     5    18    17    1
     6    17    16    1
     7    16    15    1
     8    15    11    1
     9    11    12    2
    10    11    13   am
    11    13     1    1
    12     1     2   ar
    13     2     3   ar
    14     3     4   ar
    15     4     5   ar
    16     5     6   ar
    17     6     7   ar
    18     7     8   ar
    19     8    27    1
    20    27    29    1
    21    29    30   ar
    22    30    31   ar
    23    31    32   ar
    24    32    33    1
    25    32    34   ar
    26    34    35   ar
    27    35    36    1
    28     8     9   ar
    29     9    10   ar
    30    22    23   am
    31    23    24    1
    32    10     1   ar
    33     9     4   ar
    34    35    29   ar
    35    13    14    1
    36    27    28    1
    37    23    25    1
    38    24    26    1
@<TRIPOS>MOLECULE
*****
 36 38 0 0 0
SMALL
GASTEIGER

@<TRIPOS>ATOM
      1 C         143.9865  139.8590  162.2973 C.ar    1  UNL1        0.0504
      2 C         144.0067  138.9443  161.1088 C.ar    1  UNL1        0.0147
      3 C         143.7635  139.4944  159.7347 C.ar    1  UNL1        0.0014
      4 C         143.5001  140.9594  159.5491 C.ar    1  UNL1        0.0043
      5 C         143.2569  141.5095  158.1750 C.ar    1  UNL1        0.0208
      6 C         142.9935  142.9745  157.9895 C.ar    1  UNL1        0.1003
      7 N         142.9733  143.8894  159.1780 N.ar    1  UNL1       -0.2291
      8 C         143.2165  143.3392  160.5522 C.ar    1  UNL1        0.1322
      9 C         143.4799  141.8742  160.7377 C.ar    1  UNL1        0.0330
     10 C         143.7231  141.3240  162.1118 C.ar    1  UNL1        0.0174
     11 C         143.0725  138.8731  164.5205 C.2     1  UNL1        0.2261
     12 O         141.6720  138.9875  163.9954 O.2     1  UNL1       -0.2748
     13 N         144.2297  139.3089  163.6715 N.am    1  UNL1       -0.2839
     14 H         145.1489  139.2338  164.0161 H       1  UNL1        0.1549
     15 C         143.3157  138.3229  165.8946 C.3     1  UNL1        0.0854
     16 C         143.2667  139.2327  167.0863 C.3     1  UNL1        0.0096
     17 C         142.0590  140.0892  167.3268 C.3     1  UNL1        0.0005
     18 C         142.1692  141.5826  167.2396 C.3     1  UNL1        0.0005
     19 C         143.1512  142.3140  168.1060 C.3     1  UNL1        0.0096
     20 C         143.3481  141.8969  169.5334 C.3     1  UNL1        0.0871
     21 O         141.2048  142.9691  170.5369 O.2     1  UNL1       -0.2730
     22 C         142.1729  141.8257  170.4629 C.2     1  UNL1        0.2443
     23 N         141.9658  140.6110  171.3182 N.am    1  UNL1       -0.1970
     24 O         140.7906  140.5397  172.2477 O.3     1  UNL1       -0.2952
     25 H         142.6011  139.8605  171.2696 H       1  UNL1        0.1822
     26 H         140.2694  141.3544  172.1730 H       1  UNL1        0.2414
     27 N         143.1963  144.2540  161.7407 N.pl3   1  UNL1       -0.2962
     28 H         143.9936  144.7857  161.9663 H       1  UNL1        0.1537
     29 C         141.9613  144.3588  162.5856 C.ar    1  UNL1        0.0772
     30 C         140.6997  144.9235  162.0031 C.ar    1  UNL1        0.0174
     31 C         139.4648  145.0283  162.8480 C.ar    1  UNL1        0.0081
     32 C         139.4915  144.5682  164.2755 C.ar    1  UNL1        0.0369
     33 BR        138.2564  144.6730  165.1204 Br      1  UNL1       -0.0489
     34 C         140.7530  144.0034  164.8580 C.ar    1  UNL1        0.0376
     35 C         141.9880  143.8987  164.0131 C.ar    1  UNL1        0.1539
     36 F         143.2496  143.3339  164.5956 F       1  UNL1       -0.2028
@<TRIPOS>BOND
     1    21    22    2
     2    22    20    1
     3    20    19    1
     4    19    18    1
     5    18    17    1
     6    17    16    1
     7    16    15    1
     8    15    11    1
     9    11    12    2
    10    11    13   am
    11    13     1    1
    12     1     2   ar
    13     2     3   ar
    14     3     4   ar
    15     4     5   ar
    16     5     6   ar
    17     6     7   ar
    18     7     8   ar
    19     8    27    1
    20    27    29    1
    21    29    30   ar
    22    30    31   ar
    23    31    32   ar
    24    32    33    1
    25    32    34   ar
    26    34    35   ar
    27    35    36    1
    28     8     9   ar
    29     9    10   ar
    30    22    23   am
    31    23    24    1
    32    10     1   ar
    33     9     4   ar
    34    35    29   ar
    35    13    14    1
    36    27    28    1
    37    23    25    1
    38    24    26    1
@<TRIPOS>MOLECULE
*****
 36 38 0 0 0
SMALL
GASTEIGER

@<TRIPOS>ATOM
      1 C         139.0524  138.9175  165.2394 C.ar    1  UNL1        0.0504
      2 C         138.1586  138.4260  166.3392 C.ar    1  UNL1        0.0147
      3 C         138.2569  139.0264  167.7103 C.ar    1  UNL1        0.0014
      4 C         139.2490  140.1183  167.9816 C.ar    1  UNL1        0.0043
      5 C         139.3473  140.7187  169.3527 C.ar    1  UNL1        0.0208
      6 C         140.3393  141.8106  169.6239 C.ar    1  UNL1        0.1003
      7 N         141.2331  142.3021  168.5241 N.ar    1  UNL1       -0.2291
      8 C         141.1348  141.7017  167.1530 C.ar    1  UNL1        0.1322
      9 C         140.1427  140.6098  166.8818 C.ar    1  UNL1        0.0330
     10 C         140.0444  140.0094  165.5107 C.ar    1  UNL1        0.0174
     11 C         138.2256  139.0482  162.7799 C.2     1  UNL1        0.2261
     12 O         137.5953  140.3797  163.0625 O.2     1  UNL1       -0.2748
     13 N         138.9541  138.3171  163.8683 N.am    1  UNL1       -0.2839
     14 H         139.3677  137.4432  163.6828 H       1  UNL1        0.1549
     15 C         138.1273  138.4478  161.4088 C.3     1  UNL1        0.0854
     16 C         139.1854  138.7372  160.3857 C.3     1  UNL1        0.0096
     17 C         139.5474  140.1564  160.0620 C.3     1  UNL1        0.0005
     18 C         140.9831  140.5898  160.0926 C.3     1  UNL1        0.0005
     19 C         141.5667  141.1636  161.3497 C.3     1  UNL1        0.0096
     20 C         141.8588  140.2685  162.5175 C.3     1  UNL1        0.0871
     21 O         141.6540  137.6831  162.6707 O.2     1  UNL1       -0.2730
     22 C         142.4382  138.9038  162.2900 C.2     1  UNL1        0.2443
     23 N         143.8017  138.7597  161.6817 N.am    1  UNL1       -0.1970
     24 O         144.3811  137.3950  161.4542 O.3     1  UNL1       -0.2952
     25 H         144.3164  139.5609  161.4319 H       1  UNL1        0.1822
     26 H         143.7500  136.7218  161.7532 H       1  UNL1        0.2414
     27 N         142.0286  142.1932  166.0532 N.pl3   1  UNL1       -0.2962
     28 H         142.9590  141.8763  165.9963 H       1  UNL1        0.1537
     29 C         141.5048  143.1674  165.0400 C.ar    1  UNL1        0.0772
     30 C         140.0960  143.6720  165.1431 C.ar    1  UNL1        0.0174
     31 C         139.5723  144.6462  164.1299 C.ar    1  UNL1        0.0081
     32 C         140.4573  145.1158  163.0136 C.ar    1  UNL1        0.0369
     33 BR        139.9335  146.0901  162.0004 Br      1  UNL1       -0.0489
     34 C         141.8661  144.6112  162.9105 C.ar    1  UNL1        0.0376
     35 C         142.3898  143.6370  163.9236 C.ar    1  UNL1        0.1539
     36 F         143.7987  143.1324  163.8206 F       1  UNL1       -0.2028
@<TRIPOS>BOND
     1    21    22    2
     2    22    20    1
     3    20    19    1
     4    19    18    1
     5    18    17    1
     6    17    16    1
     7    16    15    1
     8    15    11    1
     9    11    12    2
    10    11    13   am
    11    13     1    1
    12     1     2   ar
    13     2     3   ar
    14     3     4   ar
    15     4     5   ar
    16     5     6   ar
    17     6     7   ar
    18     7     8   ar
    19     8    27    1
    20    27    29    1
    21    29    30   ar
    22    30    31   ar
    23    31    32   ar
    24    32    33    1
    25    32    34   ar
    26    34    35   ar
    27    35    36    1
    28     8     9   ar
    29     9    10   ar
    30    22    23   am
    31    23    24    1
    32    10     1   ar
    33     9     4   ar
    34    35    29   ar
    35    13    14    1
    36    27    28    1
    37    23    25    1
    38    24    26    1
@<TRIPOS>MOLECULE
*****
 36 38 0 0 0
SMALL
GASTEIGER

@<TRIPOS>ATOM
      1 C         140.1629  138.0632  162.0294 C.ar    1  UNL1        0.0504
      2 C         139.1778  138.0861  160.8986 C.ar    1  UNL1        0.0147
      3 C         139.6263  138.4749  159.5210 C.ar    1  UNL1        0.0014
      4 C         141.0599  138.8407  159.2743 C.ar    1  UNL1        0.0043
      5 C         141.5084  139.2295  157.8967 C.ar    1  UNL1        0.0208
      6 C         142.9420  139.5952  157.6500 C.ar    1  UNL1        0.1003
      7 N         143.9272  139.5723  158.7809 N.ar    1  UNL1       -0.2291
      8 C         143.4787  139.1835  160.1585 C.ar    1  UNL1        0.1322
      9 C         142.0450  138.8177  160.4052 C.ar    1  UNL1        0.0330
     10 C         141.5965  138.4290  161.7827 C.ar    1  UNL1        0.0174
     11 C         138.9370  138.6459  164.2447 C.2     1  UNL1        0.2261
     12 O         138.6080  140.0062  163.7049 O.2     1  UNL1       -0.2748
     13 N         139.7144  137.6744  163.4070 N.am    1  UNL1       -0.2839
     14 H         139.9303  136.7816  163.7614 H       1  UNL1        0.1549
     15 C         138.4885  138.2571  165.6223 C.3     1  UNL1        0.0854
     16 C         138.5596  139.2519  166.7428 C.3     1  UNL1        0.0096
     17 C         139.8805  139.8420  167.1392 C.3     1  UNL1        0.0005
     18 C         140.0613  141.3309  167.1586 C.3     1  UNL1        0.0005
     19 C         140.3067  142.0734  165.8786 C.3     1  UNL1        0.0096
     20 C         139.7310  143.4450  165.6849 C.3     1  UNL1        0.0871
     21 O         139.2990  145.0794  163.7121 O.2     1  UNL1       -0.2730
     22 C         139.0129  143.7841  164.4124 C.2     1  UNL1        0.2443
     23 N         138.0088  142.8279  163.8402 N.am    1  UNL1       -0.1970
     24 O         137.2907  143.1670  162.5677 O.3     1  UNL1       -0.2952
     25 H         137.8210  141.9778  164.2998 H       1  UNL1        0.1822
     26 H         137.5900  144.0327  162.2483 H       1  UNL1        0.2414
     27 N         144.4638  139.1606  161.2894 N.pl3   1  UNL1       -0.2962
     28 H         145.1184  138.4283  161.3572 H       1  UNL1        0.1537
     29 C         144.4516  140.2533  162.3170 C.ar    1  UNL1        0.0772
     30 C         144.2010  139.9241  163.7588 C.ar    1  UNL1        0.0174
     31 C         144.1888  141.0168  164.7863 C.ar    1  UNL1        0.0081
     32 C         144.4273  142.4386  164.3721 C.ar    1  UNL1        0.0369
     33 BR        144.4151  143.5313  165.3997 Br      1  UNL1       -0.0489
     34 C         144.6780  142.7677  162.9303 C.ar    1  UNL1        0.0376
     35 C         144.6901  141.6751  161.9028 C.ar    1  UNL1        0.1539
     36 F         144.9408  142.0042  160.4609 F       1  UNL1       -0.2028
@<TRIPOS>BOND
     1    21    22    2
     2    22    20    1
     3    20    19    1
     4    19    18    1
     5    18    17    1
     6    17    16    1
     7    16    15    1
     8    15    11    1
     9    11    12    2
    10    11    13   am
    11    13     1    1
    12     1     2   ar
    13     2     3   ar
    14     3     4   ar
    15     4     5   ar
    16     5     6   ar
    17     6     7   ar
    18     7     8   ar
    19     8    27    1
    20    27    29    1
    21    29    30   ar
    22    30    31   ar
    23    31    32   ar
    24    32    33    1
    25    32    34   ar
    26    34    35   ar
    27    35    36    1
    28     8     9   ar
    29     9    10   ar
    30    22    23   am
    31    23    24    1
    32    10     1   ar
    33     9     4   ar
    34    35    29   ar
    35    13    14    1
    36    27    28    1
    37    23    25    1
    38    24    26    1
@<TRIPOS>MOLECULE
*****
 36 38 0 0 0
SMALL
GASTEIGER

@<TRIPOS>ATOM
      1 C         141.5505  138.3004  161.9597 C.ar    1  UNL1        0.0504
      2 C         142.3855  138.0548  160.7382 C.ar    1  UNL1        0.0147
      3 C         141.8491  138.4014  159.3809 C.ar    1  UNL1        0.0014
      4 C         140.4777  138.9937  159.2452 C.ar    1  UNL1        0.0043
      5 C         139.9414  139.3403  157.8879 C.ar    1  UNL1        0.0208
      6 C         138.5700  139.9326  157.7523 C.ar    1  UNL1        0.1003
      7 N         137.7349  140.1783  158.9739 N.ar    1  UNL1       -0.2291
      8 C         138.2712  139.8317  160.3312 C.ar    1  UNL1        0.1322
      9 C         139.6427  139.2393  160.4668 C.ar    1  UNL1        0.0330
     10 C         140.1791  138.8927  161.8241 C.ar    1  UNL1        0.0174
     11 C         142.8545  138.9748  164.1032 C.2     1  UNL1        0.2261
     12 O         143.0859  140.3424  163.5322 O.2     1  UNL1       -0.2748
     13 N         142.0868  137.9538  163.3170 N.am    1  UNL1       -0.2839
     14 H         141.9349  137.0562  163.6918 H       1  UNL1        0.1549
     15 C         143.3909  138.6281  165.4605 C.3     1  UNL1        0.0854
     16 C         142.6275  139.0196  166.6910 C.3     1  UNL1        0.0096
     17 C         141.2613  139.6259  166.5648 C.3     1  UNL1        0.0005
     18 C         141.0406  141.0619  166.9376 C.3     1  UNL1        0.0005
     19 C         141.7206  141.6364  168.1449 C.3     1  UNL1        0.0096
     20 C         140.9671  141.7768  169.4343 C.3     1  UNL1        0.0871
     21 O         140.8109  139.3172  170.2565 O.2     1  UNL1       -0.2730
     22 C         140.1518  140.6305  169.9552 C.2     1  UNL1        0.2443
     23 N         138.6774  140.7975  170.1748 N.am    1  UNL1       -0.1970
     24 O         137.8621  139.6512  170.6956 O.3     1  UNL1       -0.2952
     25 H         138.2448  141.6595  169.9771 H       1  UNL1        0.1822
     26 H         138.4374  138.8831  170.8367 H       1  UNL1        0.2414
     27 N         137.4362  140.0773  161.5528 N.pl3   1  UNL1       -0.2962
     28 H         136.6816  139.4804  161.7614 H       1  UNL1        0.1537
     29 C         137.7509  141.2325  162.4565 C.ar    1  UNL1        0.0772
     30 C         137.8094  142.6247  161.9014 C.ar    1  UNL1        0.0174
     31 C         138.1240  143.7798  162.8052 C.ar    1  UNL1        0.0081
     32 C         138.3801  143.5426  164.2640 C.ar    1  UNL1        0.0369
     33 BR        138.6948  144.6977  165.1677 Br      1  UNL1       -0.0489
     34 C         138.3216  142.1503  164.8191 C.ar    1  UNL1        0.0376
     35 C         138.0069  140.9953  163.9153 C.ar    1  UNL1        0.1539
     36 F         137.9484  139.6029  164.4704 F       1  UNL1       -0.2028
@<TRIPOS>BOND
     1    21    22    2
     2    22    20    1
     3    20    19    1
     4    19    18    1
     5    18    17    1
     6    17    16    1
     7    16    15    1
     8    15    11    1
     9    11    12    2
    10    11    13   am
    11    13     1    1
    12     1     2   ar
    13     2     3   ar
    14     3     4   ar
    15     4     5   ar
    16     5     6   ar
    17     6     7   ar
    18     7     8   ar
    19     8    27    1
    20    27    29    1
    21    29    30   ar
    22    30    31   ar
    23    31    32   ar
    24    32    33    1
    25    32    34   ar
    26    34    35   ar
    27    35    36    1
    28     8     9   ar
    29     9    10   ar
    30    22    23   am
    31    23    24    1
    32    10     1   ar
    33     9     4   ar
    34    35    29   ar
    35    13    14    1
    36    27    28    1
    37    23    25    1
    38    24    26    1
@<TRIPOS>MOLECULE
*****
 36 38 0 0 0
SMALL
GASTEIGER

@<TRIPOS>ATOM
      1 C         142.6957  142.0747  162.4478 C.ar    1  UNL1        0.0504
      2 C         144.1168  141.7752  162.0726 C.ar    1  UNL1        0.0147
      3 C         144.9059  140.7735  162.8625 C.ar    1  UNL1        0.0014
      4 C         144.2739  140.0713  164.0276 C.ar    1  UNL1        0.0043
      5 C         145.0630  139.0696  164.8175 C.ar    1  UNL1        0.0208
      6 C         144.4310  138.3674  165.9826 C.ar    1  UNL1        0.1003
      7 N         143.0098  138.6669  166.3578 N.ar    1  UNL1       -0.2291
      8 C         142.2207  139.6685  165.5679 C.ar    1  UNL1        0.1322
      9 C         142.8528  140.3708  164.4028 C.ar    1  UNL1        0.0330
     10 C         142.0637  141.3724  163.6128 C.ar    1  UNL1        0.0174
     11 C         141.8141  144.4976  162.1283 C.2     1  UNL1        0.2261
     12 O         142.5107  144.9172  163.3888 O.2     1  UNL1       -0.2748
     13 N         141.9066  143.0763  161.6579 N.am    1  UNL1       -0.2839
     14 H         141.4494  142.8009  160.8306 H       1  UNL1        0.1549
     15 C         141.0250  145.4993  161.3384 C.3     1  UNL1        0.0854
     16 C         139.6730  145.9364  161.8192 C.3     1  UNL1        0.0096
     17 C         138.7356  144.9379  162.4310 C.3     1  UNL1        0.0005
     18 C         138.8127  144.6382  163.8987 C.3     1  UNL1        0.0005
     19 C         137.8297  143.6932  164.5238 C.3     1  UNL1        0.0096
     20 C         138.2359  142.2817  164.8286 C.3     1  UNL1        0.0871
     21 O         138.8496  139.9379  163.8905 O.2     1  UNL1       -0.2730
     22 C         138.0626  141.2111  163.7923 C.2     1  UNL1        0.2443
     23 N         137.1024  141.4137  162.6579 N.am    1  UNL1       -0.1970
     24 O         136.9291  140.3431  161.6217 O.3     1  UNL1       -0.2952
     25 H         136.5859  142.2494  162.5935 H       1  UNL1        0.1822
     26 H         137.5068  139.5929  161.8322 H       1  UNL1        0.2414
     27 N         140.7996  139.9680  165.9431 N.pl3   1  UNL1       -0.2962
     28 H         140.0646  139.6856  165.3522 H       1  UNL1        0.1537
     29 C         140.4985  140.6978  167.2186 C.ar    1  UNL1        0.0772
     30 C         139.8143  139.9848  168.3470 C.ar    1  UNL1        0.0174
     31 C         139.5132  140.7146  169.6224 C.ar    1  UNL1        0.0081
     32 C         139.8963  142.1573  169.7694 C.ar    1  UNL1        0.0369
     33 BR        139.5951  142.8871  171.0449 Br      1  UNL1       -0.0489
     34 C         140.5805  142.8704  168.6409 C.ar    1  UNL1        0.0376
     35 C         140.8816  142.1406  167.3655 C.ar    1  UNL1        0.1539
     36 F         141.5658  142.8536  166.2370 F       1  UNL1       -0.2028
@<TRIPOS>BOND
     1    21    22    2
     2    22    20    1
     3    20    19    1
     4    19    18    1
     5    18    17    1
     6    17    16    1
     7    16    15    1
     8    15    11    1
     9    11    12    2
    10    11    13   am
    11    13     1    1
    12     1     2   ar
    13     2     3   ar
    14     3     4   ar
    15     4     5   ar
    16     5     6   ar
    17     6     7   ar
    18     7     8   ar
    19     8    27    1
    20    27    29    1
    21    29    30   ar
    22    30    31   ar
    23    31    32   ar
    24    32    33    1
    25    32    34   ar
    26    34    35   ar
    27    35    36    1
    28     8     9   ar
    29     9    10   ar
    30    22    23   am
    31    23    24    1
    32    10     1   ar
    33     9     4   ar
    34    35    29   ar
    35    13    14    1
    36    27    28    1
    37    23    25    1
    38    24    26    1
@<TRIPOS>MOLECULE
*****
 36 38 0 0 0
SMALL
GASTEIGER

@<TRIPOS>ATOM
      1 C         144.4169  141.4158  161.9158 C.ar    1  UNL1        0.0504
      2 C         144.6287  142.2864  160.7129 C.ar    1  UNL1        0.0147
      3 C         144.2370  141.7930  159.3516 C.ar    1  UNL1        0.0014
      4 C         143.6335  140.4290  159.1932 C.ar    1  UNL1        0.0043
      5 C         143.2418  139.9356  157.8319 C.ar    1  UNL1        0.0208
      6 C         142.6382  138.5716  157.6736 C.ar    1  UNL1        0.1003
      7 N         142.4263  137.7009  158.8766 N.ar    1  UNL1       -0.2291
      8 C         142.8180  138.1943  160.2379 C.ar    1  UNL1        0.1322
      9 C         143.4216  139.5584  160.3962 C.ar    1  UNL1        0.0330
     10 C         143.8133  140.0518  161.7575 C.ar    1  UNL1        0.0174
     11 C         143.8760  142.7926  164.0517 C.2     1  UNL1        0.2261
     12 O         142.5517  143.1826  163.4650 O.2     1  UNL1       -0.2748
     13 N         144.8085  141.9092  163.2771 N.am    1  UNL1       -0.2839
     14 H         145.6777  141.6532  163.6622 H       1  UNL1        0.1549
     15 C         144.2677  143.2860  165.4130 C.3     1  UNL1        0.0854
     16 C         143.5787  142.7488  166.6324 C.3     1  UNL1        0.0096
     17 C         142.7453  141.5054  166.5362 C.3     1  UNL1        0.0005
     18 C         141.2504  141.5961  166.6209 C.3     1  UNL1        0.0005
     19 C         140.5311  141.0336  167.8110 C.3     1  UNL1        0.0096
     20 C         140.6295  141.7210  169.1407 C.3     1  UNL1        0.0871
     21 O         141.4998  141.2331  171.5396 O.2     1  UNL1       -0.2730
     22 C         140.5689  140.9182  170.4063 C.2     1  UNL1        0.2443
     23 N         139.5774  139.8004  170.5386 N.am    1  UNL1       -0.1970
     24 O         139.5168  138.9976  171.8043 O.3     1  UNL1       -0.2952
     25 H         138.9664  139.5937  169.7948 H       1  UNL1        0.1822
     26 H         140.1804  139.3289  172.4294 H       1  UNL1        0.2414
     27 N         142.6062  137.3236  161.4408 N.pl3   1  UNL1       -0.2962
     28 H         143.1442  136.5076  161.5588 H       1  UNL1        0.1537
     29 C         141.5746  137.6963  162.4640 C.ar    1  UNL1        0.0772
     30 C         141.9463  137.7576  163.9159 C.ar    1  UNL1        0.0174
     31 C         140.9147  138.1302  164.9391 C.ar    1  UNL1        0.0081
     32 C         139.5114  138.4415  164.5104 C.ar    1  UNL1        0.0369
     33 BR        138.4797  138.8142  165.5336 Br      1  UNL1       -0.0489
     34 C         139.1397  138.3803  163.0585 C.ar    1  UNL1        0.0376
     35 C         140.1713  138.0076  162.0353 C.ar    1  UNL1        0.1539
     36 F         139.7996  137.9464  160.5833 F       1  UNL1       -0.2028
@<TRIPOS>BOND
     1    21    22    2
     2    22    20    1
     3    20    19    1
     4    19    18    1
     5    18    17    1
     6    17    16    1
     7    16    15    1
     8    15    11    1
     9    11    12    2
    10    11    13   am
    11    13     1    1
    12     1     2   ar
    13     2     3   ar
    14     3     4   ar
    15     4     5   ar
    16     5     6   ar
    17     6     7   ar
    18     7     8   ar
    19     8    27    1
    20    27    29    1
    21    29    30   ar
    22    30    31   ar
    23    31    32   ar
    24    32    33    1
    25    32    34   ar
    26    34    35   ar
    27    35    36    1
    28     8     9   ar
    29     9    10   ar
    30    22    23   am
    31    23    24    1
    32    10     1   ar
    33     9     4   ar
    34    35    29   ar
    35    13    14    1
    36    27    28    1
    37    23    25    1
    38    24    26    1
