@<TRIPOS>MOLECULE
*****
 31 34 0 0 0
SMALL
GASTEIGER

@<TRIPOS>ATOM
      1 C         138.0243  140.2739  165.0851 C.3     1  UNL1        0.1010
      2 C         139.2938  139.4750  165.0849 C.2     1  UNL1        0.2276
      3 O         139.4619  138.3340  164.1258 O.2     1  UNL1       -0.2748
      4 N         140.3954  139.8172  166.0437 N.am    1  UNL1       -0.2670
      5 C         141.6212  138.9566  165.9608 C.3     1  UNL1        0.1796
      6 C         142.8798  139.0410  166.7725 C.2     1  UNL1        0.2464
      7 O         143.9341  138.0253  166.4459 O.2     1  UNL1       -0.2729
      8 N         143.2235  140.0068  167.8674 N.am    1  UNL1       -0.2827
      9 C         142.3935  141.1269  168.4213 C.ar    1  UNL1        0.0479
     10 C         143.1157  141.8545  169.5162 C.ar    1  UNL1        0.0144
     11 C         142.4591  143.0130  170.2067 C.ar    1  UNL1        0.0013
     12 C         141.0804  143.4437  169.8024 C.ar    1  UNL1       -0.0002
     13 C         140.3582  142.7161  168.7074 C.ar    1  UNL1       -0.0014
     14 C         141.0148  141.5576  168.0169 C.ar    1  UNL1        0.0112
     15 C         140.1256  140.9747  166.9588 C.3     1  UNL1        0.1218
     16 H         144.1112  139.8903  168.2768 H       1  UNL1        0.1549
     17 N         136.9295  141.1592  162.9015 N.3     1  UNL1       -0.3215
     18 C         137.8293  141.3726  164.0826 C.3     1  UNL1        0.0640
     19 H         136.5369  140.2185  162.9387 H       1  UNL1        0.1188
     20 H         137.4659  141.2699  162.0411 H       1  UNL1        0.1188
     21 C         138.5339  142.6846  164.2613 C.3     1  UNL1        0.0371
     22 C         137.9620  143.9118  164.9069 C.3     1  UNL1        0.0104
     23 C         139.0089  144.9855  164.8702 C.3     1  UNL1        0.0265
     24 C         140.2278  144.4218  164.2020 C.ar    1  UNL1       -0.0237
     25 C         141.5670  145.0197  163.8877 C.ar    1  UNL1        0.0274
     26 C         142.6129  144.1956  163.1969 C.ar    1  UNL1        0.1670
     27 F         143.9521  144.7935  162.8825 F       1  UNL1       -0.2018
     28 C         142.3192  142.7736  162.8205 C.ar    1  UNL1        0.1670
     29 F         143.3651  141.9494  162.1297 F       1  UNL1       -0.2018
     30 C         140.9800  142.1757  163.1349 C.ar    1  UNL1        0.0274
     31 C         139.9343  142.9999  163.8257 C.ar    1  UNL1       -0.0228
@<TRIPOS>BOND
     1    18    17    1
     2    18     1    1
     3     1     2    1
     4     2     3    2
     5     2     4   am
     6     4     5    1
     7     5     6    1
     8     6     7    2
     9     6     8   am
    10     8     9    1
    11     9    10   ar
    12    10    11   ar
    13    11    12   ar
    14    12    13   ar
    15    13    14   ar
    16    14    15    1
    17    18    21    1
    18    21    22    1
    19    22    23    1
    20    23    24    1
    21    24    25   ar
    22    25    26   ar
    23    26    27    1
    24    26    28   ar
    25    28    29    1
    26    28    30   ar
    27    30    31   ar
    28    15     4    1
    29    31    21    1
    30    14     9   ar
    31    31    24   ar
    32    17    19    1
    33    17    20    1
    34     8    16    1
@<TRIPOS>MOLECULE
*****
 31 34 0 0 0
SMALL
GASTEIGER

@<TRIPOS>ATOM
      1 C         138.2067  140.6179  164.5935 C.3     1  UNL1        0.1010
      2 C         138.1347  141.7314  163.5911 C.2     1  UNL1        0.2276
      3 O         136.9148  141.8901  162.7326 O.2     1  UNL1       -0.2748
      4 N         139.2825  142.6862  163.4471 N.am    1  UNL1       -0.2670
      5 C         139.1086  143.7623  162.4166 C.3     1  UNL1        0.1796
      6 C         140.0617  144.8567  162.0371 C.2     1  UNL1        0.2464
      7 O         139.5900  145.7853  160.9577 O.2     1  UNL1       -0.2729
      8 N         141.4241  145.1452  162.5944 N.am    1  UNL1       -0.2827
      9 C         142.1700  144.4107  163.6687 C.ar    1  UNL1        0.0479
     10 C         143.5109  145.0312  163.9271 C.ar    1  UNL1        0.0144
     11 C         144.4195  144.4471  164.9680 C.ar    1  UNL1        0.0013
     12 C         143.9871  143.2426  165.7504 C.ar    1  UNL1       -0.0002
     13 C         142.6461  142.6222  165.4920 C.ar    1  UNL1       -0.0014
     14 C         141.7376  143.2062  164.4512 C.ar    1  UNL1        0.0112
     15 C         140.4525  142.4388  164.3525 C.3     1  UNL1        0.1218
     16 H         141.8905  145.9190  162.2033 H       1  UNL1        0.1549
     17 N         138.7381  138.4108  163.3299 N.3     1  UNL1       -0.3215
     18 C         139.1109  139.4462  164.3493 C.3     1  UNL1        0.0640
     19 H         137.8463  138.6603  162.9023 H       1  UNL1        0.1188
     20 H         138.6548  137.5012  163.7839 H       1  UNL1        0.1188
     21 C         140.3878  139.3098  165.1245 C.3     1  UNL1        0.0371
     22 C         141.7158  138.8888  164.5688 C.3     1  UNL1        0.0104
     23 C         142.7096  138.8893  165.6924 C.3     1  UNL1        0.0265
     24 C         141.9957  139.3106  166.9425 C.ar    1  UNL1       -0.0237
     25 C         142.4669  139.4911  168.3550 C.ar    1  UNL1        0.0274
     26 C         141.5031  139.9316  169.4167 C.ar    1  UNL1        0.1670
     27 F         141.9743  140.1121  170.8292 F       1  UNL1       -0.2018
     28 C         140.0681  140.1914  169.0657 C.ar    1  UNL1        0.1670
     29 F         139.1042  140.6319  170.1274 F       1  UNL1       -0.2018
     30 C         139.5969  140.0109  167.6532 C.ar    1  UNL1        0.0274
     31 C         140.5607  139.5705  166.5915 C.ar    1  UNL1       -0.0228
@<TRIPOS>BOND
     1    18    17    1
     2    18     1    1
     3     1     2    1
     4     2     3    2
     5     2     4   am
     6     4     5    1
     7     5     6    1
     8     6     7    2
     9     6     8   am
    10     8     9    1
    11     9    10   ar
    12    10    11   ar
    13    11    12   ar
    14    12    13   ar
    15    13    14   ar
    16    14    15    1
    17    18    21    1
    18    21    22    1
    19    22    23    1
    20    23    24    1
    21    24    25   ar
    22    25    26   ar
    23    26    27    1
    24    26    28   ar
    25    28    29    1
    26    28    30   ar
    27    30    31   ar
    28    15     4    1
    29    31    21    1
    30    14     9   ar
    31    31    24   ar
    32    17    19    1
    33    17    20    1
    34     8    16    1
@<TRIPOS>MOLECULE
*****
 31 34 0 0 0
SMALL
GASTEIGER

@<TRIPOS>ATOM
      1 C         144.5167  143.5147  162.4459 C.3     1  UNL1        0.1010
      2 C         143.6054  143.2354  161.2876 C.2     1  UNL1        0.2276
      3 O         144.1804  142.8500  159.9569 O.2     1  UNL1       -0.2748
      4 N         142.1192  143.3416  161.4601 N.am    1  UNL1       -0.2670
      5 C         141.2994  143.0419  160.2403 C.3     1  UNL1        0.1796
      6 C         139.8071  143.0600  160.0886 C.2     1  UNL1        0.2464
      7 O         139.2871  142.7094  158.7261 O.2     1  UNL1       -0.2729
      8 N         138.7663  143.3823  161.1195 N.am    1  UNL1       -0.2827
      9 C         138.9604  143.7661  162.5565 C.ar    1  UNL1        0.0479
     10 C         137.6478  144.0051  163.2420 C.ar    1  UNL1        0.0144
     11 C         137.6184  144.4005  164.6887 C.ar    1  UNL1        0.0013
     12 C         138.9014  144.5568  165.4498 C.ar    1  UNL1       -0.0002
     13 C         140.2140  144.3177  164.7642 C.ar    1  UNL1       -0.0014
     14 C         140.2435  143.9224  163.3176 C.ar    1  UNL1        0.0112
     15 C         141.6493  143.7335  162.8296 C.3     1  UNL1        0.1218
     16 H         137.8321  143.3357  160.8123 H       1  UNL1        0.1549
     17 N         146.2944  141.7722  163.1899 N.3     1  UNL1       -0.3215
     18 C         144.9408  142.3979  163.3529 C.3     1  UNL1        0.0640
     19 H         146.7882  142.2256  162.4212 H       1  UNL1        0.1188
     20 H         146.1873  140.7785  162.9862 H       1  UNL1        0.1188
     21 C         144.0114  141.9066  164.4229 C.3     1  UNL1        0.0371
     22 C         143.7418  142.5822  165.7347 C.3     1  UNL1        0.0104
     23 C         142.7522  141.7466  166.4916 C.3     1  UNL1        0.0265
     24 C         142.4103  140.5548  165.6474 C.ar    1  UNL1       -0.0237
     25 C         141.4909  139.3923  165.8778 C.ar    1  UNL1        0.0274
     26 C         141.3497  138.3285  164.8297 C.ar    1  UNL1        0.1670
     27 F         140.4303  137.1660  165.0601 F       1  UNL1       -0.2018
     28 C         142.1280  138.4274  163.5512 C.ar    1  UNL1        0.1670
     29 F         141.9868  137.3636  162.5031 F       1  UNL1       -0.2018
     30 C         143.0474  139.5899  163.3208 C.ar    1  UNL1        0.0274
     31 C         143.1886  140.6537  164.3690 C.ar    1  UNL1       -0.0228
@<TRIPOS>BOND
     1    18    17    1
     2    18     1    1
     3     1     2    1
     4     2     3    2
     5     2     4   am
     6     4     5    1
     7     5     6    1
     8     6     7    2
     9     6     8   am
    10     8     9    1
    11     9    10   ar
    12    10    11   ar
    13    11    12   ar
    14    12    13   ar
    15    13    14   ar
    16    14    15    1
    17    18    21    1
    18    21    22    1
    19    22    23    1
    20    23    24    1
    21    24    25   ar
    22    25    26   ar
    23    26    27    1
    24    26    28   ar
    25    28    29    1
    26    28    30   ar
    27    30    31   ar
    28    15     4    1
    29    31    21    1
    30    14     9   ar
    31    31    24   ar
    32    17    19    1
    33    17    20    1
    34     8    16    1
@<TRIPOS>MOLECULE
*****
 31 34 0 0 0
SMALL
GASTEIGER

@<TRIPOS>ATOM
      1 C         141.8880  145.3883  163.6175 C.3     1  UNL1        0.1010
      2 C         142.7826  144.2378  163.2628 C.2     1  UNL1        0.2276
      3 O         143.6622  144.3177  162.0504 O.2     1  UNL1       -0.2748
      4 N         142.7976  143.0073  164.1204 N.am    1  UNL1       -0.2670
      5 C         143.7270  141.9164  163.6773 C.3     1  UNL1        0.1796
      6 C         143.9696  140.5791  164.3121 C.2     1  UNL1        0.2464
      7 O         144.9715  139.7027  163.6209 O.2     1  UNL1       -0.2729
      8 N         143.3426  140.0025  165.5467 N.am    1  UNL1       -0.2827
      9 C         142.3182  140.6206  166.4516 C.ar    1  UNL1        0.0479
     10 C         141.9579  139.7009  167.5804 C.ar    1  UNL1        0.0144
     11 C         140.9473  140.1287  168.6029 C.ar    1  UNL1        0.0013
     12 C         140.2969  141.4762  168.4965 C.ar    1  UNL1       -0.0002
     13 C         140.6571  142.3959  167.3676 C.ar    1  UNL1       -0.0014
     14 C         141.6678  141.9681  166.3452 C.ar    1  UNL1        0.0112
     15 C         141.8812  143.0302  165.3077 C.3     1  UNL1        0.1218
     16 H         143.6431  139.0988  165.7962 H       1  UNL1        0.1549
     17 N         140.1924  146.5285  162.0128 N.3     1  UNL1       -0.3215
     18 C         140.5095  145.4748  163.0323 C.3     1  UNL1        0.0640
     19 H         141.0235  147.0932  161.8376 H       1  UNL1        0.1188
     20 H         139.4431  147.1256  162.3628 H       1  UNL1        0.1188
     21 C         139.4483  144.5078  163.4666 C.3     1  UNL1        0.0371
     22 C         138.5921  144.6303  164.6920 C.3     1  UNL1        0.0104
     23 C         137.6715  143.4466  164.7344 C.3     1  UNL1        0.0265
     24 C         137.9589  142.5927  163.5352 C.ar    1  UNL1       -0.0237
     25 C         137.3625  141.3028  163.0554 C.ar    1  UNL1        0.0274
     26 C         137.8642  140.6685  161.7920 C.ar    1  UNL1        0.1670
     27 F         137.2678  139.3786  161.3123 F       1  UNL1       -0.2018
     28 C         138.9623  141.3245  161.0085 C.ar    1  UNL1        0.1670
     29 F         139.4640  140.6902  159.7450 F       1  UNL1       -0.2018
     30 C         139.5587  142.6144  161.4882 C.ar    1  UNL1        0.0274
     31 C         139.0569  143.2486  162.7516 C.ar    1  UNL1       -0.0228
@<TRIPOS>BOND
     1    18    17    1
     2    18     1    1
     3     1     2    1
     4     2     3    2
     5     2     4   am
     6     4     5    1
     7     5     6    1
     8     6     7    2
     9     6     8   am
    10     8     9    1
    11     9    10   ar
    12    10    11   ar
    13    11    12   ar
    14    12    13   ar
    15    13    14   ar
    16    14    15    1
    17    18    21    1
    18    21    22    1
    19    22    23    1
    20    23    24    1
    21    24    25   ar
    22    25    26   ar
    23    26    27    1
    24    26    28   ar
    25    28    29    1
    26    28    30   ar
    27    30    31   ar
    28    15     4    1
    29    31    21    1
    30    14     9   ar
    31    31    24   ar
    32    17    19    1
    33    17    20    1
    34     8    16    1
@<TRIPOS>MOLECULE
*****
 31 34 0 0 0
SMALL
GASTEIGER

@<TRIPOS>ATOM
      1 C         140.2458  138.8476  162.2440 C.3     1  UNL1        0.1010
      2 C         139.2449  139.9648  162.2465 C.2     1  UNL1        0.2276
      3 O         137.8076  139.6849  161.9208 O.2     1  UNL1       -0.2748
      4 N         139.6811  141.3619  162.5748 N.am    1  UNL1       -0.2670
      5 C         138.6021  142.4036  162.5492 C.3     1  UNL1        0.1796
      6 C         138.7141  143.8733  162.8277 C.2     1  UNL1        0.2464
      7 O         137.4389  144.6554  162.7188 O.2     1  UNL1       -0.2729
      8 N         139.9329  144.6641  163.2007 N.am    1  UNL1       -0.2827
      9 C         141.3406  144.1808  163.3873 C.ar    1  UNL1        0.0479
     10 C         142.2609  145.3047  163.7611 C.ar    1  UNL1        0.0144
     11 C         143.7179  145.0349  163.9946 C.ar    1  UNL1        0.0013
     12 C         144.2545  143.6412  163.8542 C.ar    1  UNL1       -0.0002
     13 C         143.3341  142.5173  163.4805 C.ar    1  UNL1       -0.0014
     14 C         141.8772  142.7871  163.2470 C.ar    1  UNL1        0.0112
     15 C         141.1386  141.5326  162.8854 C.3     1  UNL1        0.1218
     16 H         139.7900  145.6279  163.3417 H       1  UNL1        0.1549
     17 N         141.2242  136.7276  163.3834 N.3     1  UNL1       -0.3215
     18 C         140.4107  137.9855  163.4604 C.3     1  UNL1        0.0640
     19 H         141.5876  136.6151  162.4370 H       1  UNL1        0.1188
     20 H         140.6368  135.9278  163.6194 H       1  UNL1        0.1188
     21 C         139.7622  138.3813  164.7538 C.3     1  UNL1        0.0371
     22 C         138.4260  137.9136  165.2494 C.3     1  UNL1        0.0104
     23 C         138.1741  138.5576  166.5805 C.3     1  UNL1        0.0265
     24 C         139.3546  139.4233  166.9076 C.ar    1  UNL1       -0.0237
     25 C         139.6626  140.2966  168.0875 C.ar    1  UNL1        0.0274
     26 C         140.9522  141.0611  168.1385 C.ar    1  UNL1        0.1670
     27 F         141.2601  141.9345  169.3184 F       1  UNL1       -0.2018
     28 C         141.9337  140.9522  167.0095 C.ar    1  UNL1        0.1670
     29 F         143.2233  141.7167  167.0605 F       1  UNL1       -0.2018
     30 C         141.6257  140.0788  165.8295 C.ar    1  UNL1        0.0274
     31 C         140.3361  139.3143  165.7786 C.ar    1  UNL1       -0.0228
@<TRIPOS>BOND
     1    18    17    1
     2    18     1    1
     3     1     2    1
     4     2     3    2
     5     2     4   am
     6     4     5    1
     7     5     6    1
     8     6     7    2
     9     6     8   am
    10     8     9    1
    11     9    10   ar
    12    10    11   ar
    13    11    12   ar
    14    12    13   ar
    15    13    14   ar
    16    14    15    1
    17    18    21    1
    18    21    22    1
    19    22    23    1
    20    23    24    1
    21    24    25   ar
    22    25    26   ar
    23    26    27    1
    24    26    28   ar
    25    28    29    1
    26    28    30   ar
    27    30    31   ar
    28    15     4    1
    29    31    21    1
    30    14     9   ar
    31    31    24   ar
    32    17    19    1
    33    17    20    1
    34     8    16    1
@<TRIPOS>MOLECULE
*****
 31 34 0 0 0
SMALL
GASTEIGER

@<TRIPOS>ATOM
      1 C         138.8393  144.7731  162.7552 C.3     1  UNL1        0.1010
      2 C         138.5719  143.3359  162.4193 C.2     1  UNL1        0.2276
      3 O         138.0095  142.9715  161.0772 O.2     1  UNL1       -0.2748
      4 N         138.8668  142.2632  163.4253 N.am    1  UNL1       -0.2670
      5 C         138.5631  140.8605  162.9889 C.3     1  UNL1        0.1796
      6 C         138.7440  139.5831  163.7542 C.2     1  UNL1        0.2464
      7 O         138.3426  138.3303  163.0336 O.2     1  UNL1       -0.2729
      8 N         139.2733  139.3929  165.1447 N.am    1  UNL1       -0.2827
      9 C         139.7524  140.4331  166.1136 C.ar    1  UNL1        0.0479
     10 C         140.2020  139.8144  167.4039 C.ar    1  UNL1        0.0144
     11 C         140.7197  140.6831  168.5118 C.ar    1  UNL1        0.0013
     12 C         140.7878  142.1704  168.3293 C.ar    1  UNL1       -0.0002
     13 C         140.3382  142.7890  167.0389 C.ar    1  UNL1       -0.0014
     14 C         139.8205  141.9204  165.9310 C.ar    1  UNL1        0.0112
     15 C         139.4264  142.7348  164.7346 C.3     1  UNL1        0.1218
     16 H         139.3113  138.4623  165.4638 H       1  UNL1        0.1549
     17 N         140.1482  146.9503  162.2104 N.3     1  UNL1       -0.3215
     18 C         140.0655  145.4526  162.2215 C.3     1  UNL1        0.0640
     19 H         139.2898  147.3411  162.5988 H       1  UNL1        0.1188
     20 H         140.2671  147.2771  161.2515 H       1  UNL1        0.1188
     21 C         141.2089  144.6344  161.6990 C.3     1  UNL1        0.0371
     22 C         141.4339  144.2467  160.2675 C.3     1  UNL1        0.0104
     23 C         142.6922  143.4329  160.2000 C.3     1  UNL1        0.0265
     24 C         143.2448  143.3177  161.5897 C.ar    1  UNL1       -0.0237
     25 C         144.4643  142.6325  162.1312 C.ar    1  UNL1        0.0274
     26 C         144.7672  142.6898  163.5993 C.ar    1  UNL1        0.1670
     27 F         145.9867  142.0047  164.1408 F       1  UNL1       -0.2018
     28 C         143.8504  143.4324  164.5256 C.ar    1  UNL1        0.1670
     29 F         144.1533  143.4897  165.9937 F       1  UNL1       -0.2018
     30 C         142.6309  144.1176  163.9841 C.ar    1  UNL1        0.0274
     31 C         142.3281  144.0602  162.5161 C.ar    1  UNL1       -0.0228
@<TRIPOS>BOND
     1    18    17    1
     2    18     1    1
     3     1     2    1
     4     2     3    2
     5     2     4   am
     6     4     5    1
     7     5     6    1
     8     6     7    2
     9     6     8   am
    10     8     9    1
    11     9    10   ar
    12    10    11   ar
    13    11    12   ar
    14    12    13   ar
    15    13    14   ar
    16    14    15    1
    17    18    21    1
    18    21    22    1
    19    22    23    1
    20    23    24    1
    21    24    25   ar
    22    25    26   ar
    23    26    27    1
    24    26    28   ar
    25    28    29    1
    26    28    30   ar
    27    30    31   ar
    28    15     4    1
    29    31    21    1
    30    14     9   ar
    31    31    24   ar
    32    17    19    1
    33    17    20    1
    34     8    16    1
@<TRIPOS>MOLECULE
*****
 31 34 0 0 0
SMALL
GASTEIGER

@<TRIPOS>ATOM
      1 C         139.9172  144.5353  161.9696 C.3     1  UNL1        0.1010
      2 C         139.2743  143.2559  161.5225 C.2     1  UNL1        0.2276
      3 O         138.8187  143.1020  160.1016 O.2     1  UNL1       -0.2748
      4 N         139.0871  142.1304  162.4961 N.am    1  UNL1       -0.2670
      5 C         138.4344  140.8965  161.9470 C.3     1  UNL1        0.1796
      6 C         138.1108  139.6150  162.6562 C.2     1  UNL1        0.2464
      7 O         137.4508  138.5578  161.8215 O.2     1  UNL1       -0.2729
      8 N         138.3598  139.2510  164.0899 N.am    1  UNL1       -0.2827
      9 C         138.9940  140.0784  165.1684 C.ar    1  UNL1        0.0479
     10 C         139.0515  139.3329  166.4688 C.ar    1  UNL1        0.0144
     11 C         139.6507  139.9834  167.6803 C.ar    1  UNL1        0.0013
     12 C         140.1925  141.3793  167.5914 C.ar    1  UNL1       -0.0002
     13 C         140.1351  142.1247  166.2911 C.ar    1  UNL1       -0.0014
     14 C         139.5359  141.4743  165.0796 C.ar    1  UNL1        0.0112
     15 C         139.5773  142.3874  163.8903 C.3     1  UNL1        0.1218
     16 H         138.0685  138.3497  164.3586 H       1  UNL1        0.1549
     17 N         141.7929  145.3977  160.3923 N.3     1  UNL1       -0.3215
     18 C         141.3709  144.7809  161.6929 C.3     1  UNL1        0.0640
     19 H         140.9687  145.5839  159.8210 H       1  UNL1        0.1188
     20 H         142.4122  144.7562  159.8969 H       1  UNL1        0.1188
     21 C         142.4024  144.4099  162.7167 C.3     1  UNL1        0.0371
     22 C         142.9770  145.3217  163.7599 C.3     1  UNL1        0.0104
     23 C         143.9702  144.5372  164.5650 C.3     1  UNL1        0.0265
     24 C         144.0094  143.1405  164.0194 C.ar    1  UNL1       -0.0237
     25 C         144.8022  141.9303  164.4152 C.ar    1  UNL1        0.0274
     26 C         144.6261  140.6412  163.6686 C.ar    1  UNL1        0.1670
     27 F         145.4188  139.4309  164.0643 F       1  UNL1       -0.2018
     28 C         143.6571  140.5626  162.5262 C.ar    1  UNL1        0.1670
     29 F         143.4809  139.2734  161.7797 F       1  UNL1       -0.2018
     30 C         142.8643  141.7728  162.1305 C.ar    1  UNL1        0.0274
     31 C         143.0405  143.0618  162.8771 C.ar    1  UNL1       -0.0228
@<TRIPOS>BOND
     1    18    17    1
     2    18     1    1
     3     1     2    1
     4     2     3    2
     5     2     4   am
     6     4     5    1
     7     5     6    1
     8     6     7    2
     9     6     8   am
    10     8     9    1
    11     9    10   ar
    12    10    11   ar
    13    11    12   ar
    14    12    13   ar
    15    13    14   ar
    16    14    15    1
    17    18    21    1
    18    21    22    1
    19    22    23    1
    20    23    24    1
    21    24    25   ar
    22    25    26   ar
    23    26    27    1
    24    26    28   ar
    25    28    29    1
    26    28    30   ar
    27    30    31   ar
    28    15     4    1
    29    31    21    1
    30    14     9   ar
    31    31    24   ar
    32    17    19    1
    33    17    20    1
    34     8    16    1
@<TRIPOS>MOLECULE
*****
 31 34 0 0 0
SMALL
GASTEIGER

@<TRIPOS>ATOM
      1 C         139.5730  144.1297  161.8860 C.3     1  UNL1        0.1010
      2 C         140.0543  142.9912  161.0361 C.2     1  UNL1        0.2276
      3 O         140.6359  143.2613  159.6800 O.2     1  UNL1       -0.2748
      4 N         139.9539  141.5828  161.5422 N.am    1  UNL1       -0.2670
      5 C         140.4633  140.5200  160.6143 C.3     1  UNL1        0.1796
      6 C         140.5021  139.0352  160.8243 C.2     1  UNL1        0.2464
      7 O         141.0780  138.2330  159.6953 O.2     1  UNL1       -0.2729
      8 N         140.0410  138.2467  162.0141 N.am    1  UNL1       -0.2827
      9 C         139.4273  138.7480  163.2877 C.ar    1  UNL1        0.0479
     10 C         139.1097  137.6200  164.2241 C.ar    1  UNL1        0.0144
     11 C         138.4879  137.9059  165.5588 C.ar    1  UNL1        0.0013
     12 C         138.1837  139.3197  165.9572 C.ar    1  UNL1       -0.0002
     13 C         138.5013  140.4476  165.0208 C.ar    1  UNL1       -0.0014
     14 C         139.1231  140.1617  163.6861 C.ar    1  UNL1        0.0112
     15 C         139.3575  141.4233  162.9092 C.3     1  UNL1        0.1218
     16 H         140.1564  137.2710  161.9507 H       1  UNL1        0.1549
     17 N         140.3148  146.5425  162.5009 N.3     1  UNL1       -0.3215
     18 C         140.5617  145.0630  162.5195 C.3     1  UNL1        0.0640
     19 H         139.4356  146.7344  162.0208 H       1  UNL1        0.1188
     20 H         141.0786  147.0084  162.0110 H       1  UNL1        0.1188
     21 C         141.7972  144.5169  163.1717 C.3     1  UNL1        0.0371
     22 C         143.1984  144.6453  162.6523 C.3     1  UNL1        0.0104
     23 C         144.1156  143.9543  163.6174 C.3     1  UNL1        0.0265
     24 C         143.2811  143.3989  164.7333 C.ar    1  UNL1       -0.0237
     25 C         143.6409  142.6214  165.9645 C.ar    1  UNL1        0.0274
     26 C         142.5678  142.1917  166.9205 C.ar    1  UNL1        0.1670
     27 F         142.9276  141.4142  168.1517 F       1  UNL1       -0.2018
     28 C         141.1349  142.5394  166.6449 C.ar    1  UNL1        0.1670
     29 F         140.0617  142.1096  167.6009 F       1  UNL1       -0.2018
     30 C         140.7751  143.3168  165.4137 C.ar    1  UNL1        0.0274
     31 C         141.8483  143.7466  164.4578 C.ar    1  UNL1       -0.0228
@<TRIPOS>BOND
     1    18    17    1
     2    18     1    1
     3     1     2    1
     4     2     3    2
     5     2     4   am
     6     4     5    1
     7     5     6    1
     8     6     7    2
     9     6     8   am
    10     8     9    1
    11     9    10   ar
    12    10    11   ar
    13    11    12   ar
    14    12    13   ar
    15    13    14   ar
    16    14    15    1
    17    18    21    1
    18    21    22    1
    19    22    23    1
    20    23    24    1
    21    24    25   ar
    22    25    26   ar
    23    26    27    1
    24    26    28   ar
    25    28    29    1
    26    28    30   ar
    27    30    31   ar
    28    15     4    1
    29    31    21    1
    30    14     9   ar
    31    31    24   ar
    32    17    19    1
    33    17    20    1
    34     8    16    1
@<TRIPOS>MOLECULE
*****
 31 34 0 0 0
SMALL
GASTEIGER

@<TRIPOS>ATOM
      1 C         141.0209  144.4054  161.3764 C.3     1  UNL1        0.1010
      2 C         140.1079  143.7380  160.3911 C.2     1  UNL1        0.2276
      3 O         139.6965  144.4594  159.1418 O.2     1  UNL1       -0.2748
      4 N         139.6063  142.3492  160.6548 N.am    1  UNL1       -0.2670
      5 C         138.6997  141.7747  159.6070 C.3     1  UNL1        0.1796
      6 C         138.0404  140.4276  159.5770 C.2     1  UNL1        0.2464
      7 O         137.1833  140.1490  158.3780 O.2     1  UNL1       -0.2729
      8 N         138.1250  139.3225  160.5877 N.am    1  UNL1       -0.2827
      9 C         138.8896  139.2912  161.8778 C.ar    1  UNL1        0.0479
     10 C         138.7020  137.9871  162.5947 C.ar    1  UNL1        0.0144
     11 C         139.3833  137.7493  163.9096 C.ar    1  UNL1        0.0013
     12 C         140.2523  138.8157  164.5077 C.ar    1  UNL1       -0.0002
     13 C         140.4399  140.1198  163.7909 C.ar    1  UNL1       -0.0014
     14 C         139.7586  140.3576  162.4759 C.ar    1  UNL1        0.0112
     15 C         140.0775  141.7185  161.9316 C.3     1  UNL1        0.1218
     16 H         137.6106  138.5101  160.3763 H       1  UNL1        0.1549
     17 N         140.2135  146.7181  162.2421 N.3     1  UNL1       -0.3215
     18 C         140.4492  145.2547  162.4727 C.3     1  UNL1        0.0640
     19 H         140.4961  146.9626  161.2931 H       1  UNL1        0.1188
     20 H         140.7614  147.2601  162.9103 H       1  UNL1        0.1188
     21 C         140.1132  144.6408  163.7994 C.3     1  UNL1        0.0371
     22 C         138.8160  144.7911  164.5371 C.3     1  UNL1        0.0104
     23 C         138.9165  144.0119  165.8150 C.3     1  UNL1        0.0265
     24 C         140.2760  143.3801  165.8669 C.ar    1  UNL1       -0.0237
     25 C         140.9359  142.5012  166.8876 C.ar    1  UNL1        0.0274
     26 C         142.3355  142.0108  166.6626 C.ar    1  UNL1        0.1670
     27 F         142.9954  141.1318  167.6833 F       1  UNL1       -0.2018
     28 C         143.0751  142.3995  165.4168 C.ar    1  UNL1        0.1670
     29 F         144.4748  141.9091  165.1918 F       1  UNL1       -0.2018
     30 C         142.4152  143.2784  164.3961 C.ar    1  UNL1        0.0274
     31 C         141.0155  143.7688  164.6212 C.ar    1  UNL1       -0.0228
@<TRIPOS>BOND
     1    18    17    1
     2    18     1    1
     3     1     2    1
     4     2     3    2
     5     2     4   am
     6     4     5    1
     7     5     6    1
     8     6     7    2
     9     6     8   am
    10     8     9    1
    11     9    10   ar
    12    10    11   ar
    13    11    12   ar
    14    12    13   ar
    15    13    14   ar
    16    14    15    1
    17    18    21    1
    18    21    22    1
    19    22    23    1
    20    23    24    1
    21    24    25   ar
    22    25    26   ar
    23    26    27    1
    24    26    28   ar
    25    28    29    1
    26    28    30   ar
    27    30    31   ar
    28    15     4    1
    29    31    21    1
    30    14     9   ar
    31    31    24   ar
    32    17    19    1
    33    17    20    1
    34     8    16    1
