@<TRIPOS>MOLECULE
*****
 33 36 0 0 0
SMALL
GASTEIGER

@<TRIPOS>ATOM
      1 C         137.8622  142.0554  162.0841 C.2     1  UNL1        0.2301
      2 O         137.2693  140.7996  161.5172 O.2     1  UNL1       -0.2745
      3 N         138.7261  142.9309  161.2255 N.am    1  UNL1       -0.2792
      4 C         138.9970  142.5507  159.8000 C.3     1  UNL1        0.0951
      5 C         139.8609  143.4262  158.9414 C.3     1  UNL1        0.0410
      6 C         140.4538  144.6820  159.5083 C.3     1  UNL1        0.0724
      7 C         140.1829  145.0623  160.9338 C.3     1  UNL1        0.0410
      8 C         139.3190  144.1868  161.7924 C.3     1  UNL1        0.0951
      9 N         141.3176  145.5576  158.6497 N.pl3   1  UNL1       -0.3339
     10 H         142.1824  145.8820  158.9906 H       1  UNL1        0.1468
     11 C         140.8640  145.9387  157.2717 C.ar    1  UNL1        0.0469
     12 C         139.6002  146.7257  157.0891 C.ar    1  UNL1        0.0144
     13 C         139.1465  147.1069  155.7111 C.ar    1  UNL1        0.0036
     14 C         139.9567  146.7011  154.5157 C.ar    1  UNL1        0.0297
     15 C         141.2206  145.9141  154.6984 C.ar    1  UNL1        0.1414
     16 F         142.0308  145.5083  153.5030 F       1  UNL1       -0.2041
     17 C         141.6742  145.5329  156.0764 C.ar    1  UNL1        0.0439
     18 C         137.5913  142.4357  163.5096 C.3     1  UNL1        0.1116
     19 C         140.0046  140.5888  166.8285 C.ar    1  UNL1       -0.0062
     20 C         138.9753  139.7716  166.1053 C.ar    1  UNL1       -0.0032
     21 C         138.1709  140.3873  164.9990 C.ar    1  UNL1       -0.0041
     22 C         138.3958  141.8200  164.6159 C.ar    1  UNL1       -0.0131
     23 C         139.4250  142.6371  165.3391 C.ar    1  UNL1       -0.0041
     24 C         140.2294  142.0214  166.4454 C.ar    1  UNL1       -0.0032
     25 C         140.8090  139.9731  167.9348 C.3     1  UNL1        0.0992
     26 C         144.6303  142.7714  170.0721 C.3     1  UNL1        0.0186
     27 C         143.2331  142.2281  170.1232 C.3     1  UNL1        0.0703
     28 C         142.7196  141.3723  169.0035 C.3     1  UNL1        0.0882
     29 N         141.3224  140.8290  169.0547 N.3     1  UNL1       -0.2666
     30 C         140.4386  141.1415  170.2256 C.3     1  UNL1        0.0897
     31 C         140.9521  141.9973  171.3454 C.3     1  UNL1        0.0861
     32 N         142.3493  142.5406  171.2942 N.3     1  UNL1       -0.2963
     33 H         142.8296  142.1966  172.1257 H       1  UNL1        0.1233
@<TRIPOS>BOND
     1    27    26    1
     2    27    28    1
     3    28    29    1
     4    29    25    1
     5    25    19    1
     6    19    20   ar
     7    20    21   ar
     8    21    22   ar
     9    22    18    1
    10    18     1    1
    11     1     2    2
    12     1     3   am
    13     3     4    1
    14     4     5    1
    15     5     6    1
    16     6     9    1
    17     9    11    1
    18    11    12   ar
    19    12    13   ar
    20    13    14   ar
    21    14    15   ar
    22    15    16    1
    23    15    17   ar
    24     6     7    1
    25     7     8    1
    26    22    23   ar
    27    23    24   ar
    28    29    30    1
    29    30    31    1
    30    31    32    1
    31    32    27    1
    32    24    19   ar
    33     8     3    1
    34    17    11   ar
    35     9    10    1
    36    32    33    1
@<TRIPOS>MOLECULE
*****
 33 36 0 0 0
SMALL
GASTEIGER

@<TRIPOS>ATOM
      1 C         138.9863  138.9477  161.7654 C.2     1  UNL1        0.2301
      2 O         137.8495  137.9713  161.7003 O.2     1  UNL1       -0.2745
      3 N         139.6694  139.2174  163.0733 N.am    1  UNL1       -0.2792
      4 C         139.2156  138.5108  164.3161 C.3     1  UNL1        0.0951
      5 C         139.8987  138.7806  165.6241 C.3     1  UNL1        0.0410
      6 C         141.0356  139.7569  165.6891 C.3     1  UNL1        0.0724
      7 C         141.4894  140.4636  164.4462 C.3     1  UNL1        0.0410
      8 C         140.8063  140.1939  163.1383 C.3     1  UNL1        0.0951
      9 N         141.7186  140.0267  166.9970 N.pl3   1  UNL1       -0.3339
     10 H         142.6492  139.7365  167.1354 H       1  UNL1        0.1468
     11 C         140.9840  140.7385  168.0940 C.ar    1  UNL1        0.0469
     12 C         139.9510  140.0093  168.9009 C.ar    1  UNL1        0.0144
     13 C         139.2162  140.7212  169.9980 C.ar    1  UNL1        0.0036
     14 C         139.5146  142.1623  170.2881 C.ar    1  UNL1        0.0297
     15 C         140.5477  142.8915  169.4812 C.ar    1  UNL1        0.1414
     16 F         140.8461  144.3326  169.7714 F       1  UNL1       -0.2041
     17 C         141.2824  142.1796  168.3842 C.ar    1  UNL1        0.0439
     18 C         139.4401  139.6544  160.5225 C.3     1  UNL1        0.1116
     19 C         141.9498  137.4787  157.4863 C.ar    1  UNL1       -0.0062
     20 C         140.5050  137.7629  157.2000 C.ar    1  UNL1       -0.0032
     21 C         139.6684  138.4881  158.2121 C.ar    1  UNL1       -0.0041
     22 C         140.2767  138.9291  159.5104 C.ar    1  UNL1       -0.0131
     23 C         141.7214  138.6449  159.7967 C.ar    1  UNL1       -0.0041
     24 C         142.5579  137.9197  158.7846 C.ar    1  UNL1       -0.0032
     25 C         142.7863  136.7535  156.4743 C.3     1  UNL1        0.0992
     26 C         144.7662  132.1266  157.7675 C.3     1  UNL1        0.0186
     27 C         143.7338  132.9424  157.0474 C.3     1  UNL1        0.0703
     28 C         143.7763  134.4400  157.1209 C.3     1  UNL1        0.0882
     29 N         142.7438  135.2558  156.4008 N.3     1  UNL1       -0.2666
     30 C         141.6690  134.5741  155.6072 C.3     1  UNL1        0.0897
     31 C         141.6265  133.0765  155.5337 C.3     1  UNL1        0.0861
     32 N         142.6590  132.2607  156.2538 N.3     1  UNL1       -0.2963
     33 H         143.1289  131.6921  155.5493 H       1  UNL1        0.1233
@<TRIPOS>BOND
     1    27    26    1
     2    27    28    1
     3    28    29    1
     4    29    25    1
     5    25    19    1
     6    19    20   ar
     7    20    21   ar
     8    21    22   ar
     9    22    18    1
    10    18     1    1
    11     1     2    2
    12     1     3   am
    13     3     4    1
    14     4     5    1
    15     5     6    1
    16     6     9    1
    17     9    11    1
    18    11    12   ar
    19    12    13   ar
    20    13    14   ar
    21    14    15   ar
    22    15    16    1
    23    15    17   ar
    24     6     7    1
    25     7     8    1
    26    22    23   ar
    27    23    24   ar
    28    29    30    1
    29    30    31    1
    30    31    32    1
    31    32    27    1
    32    24    19   ar
    33     8     3    1
    34    17    11   ar
    35     9    10    1
    36    32    33    1
@<TRIPOS>MOLECULE
*****
 33 36 0 0 0
SMALL
GASTEIGER

@<TRIPOS>ATOM
      1 C         139.5060  138.7364  162.8954 C.2     1  UNL1        0.2301
      2 O         138.7352  137.6356  162.2292 O.2     1  UNL1       -0.2745
      3 N         139.3315  138.9922  164.3631 N.am    1  UNL1       -0.2792
      4 C         138.3863  138.1471  165.1646 C.3     1  UNL1        0.0951
      5 C         138.2119  138.4029  166.6323 C.3     1  UNL1        0.0410
      6 C         138.9827  139.5038  167.2985 C.3     1  UNL1        0.0724
      7 C         139.9279  140.3490  166.4971 C.3     1  UNL1        0.0410
      8 C         140.1024  140.0932  165.0294 C.3     1  UNL1        0.0951
      9 N         138.8082  139.7596  168.7662 N.pl3   1  UNL1       -0.3339
     10 H         137.9835  139.4732  169.2212 H       1  UNL1        0.1468
     11 C         139.8904  140.4516  169.5407 C.ar    1  UNL1        0.0469
     12 C         139.7290  141.8903  169.9333 C.ar    1  UNL1        0.0144
     13 C         140.8112  142.5824  170.7078 C.ar    1  UNL1        0.0036
     14 C         142.0548  141.8358  171.0898 C.ar    1  UNL1        0.0297
     15 C         142.2162  140.3971  170.6973 C.ar    1  UNL1        0.1414
     16 F         143.4599  139.6504  171.0793 F       1  UNL1       -0.2041
     17 C         141.1341  139.7050  169.9228 C.ar    1  UNL1        0.0439
     18 C         140.4512  139.5816  162.0940 C.3     1  UNL1        0.1116
     19 C         142.3281  137.9284  158.3531 C.ar    1  UNL1       -0.0062
     20 C         143.0488  137.8211  159.6643 C.ar    1  UNL1       -0.0032
     21 C         142.4232  138.3722  160.9112 C.ar    1  UNL1       -0.0041
     22 C         141.0768  139.0305  160.8470 C.ar    1  UNL1       -0.0131
     23 C         140.3562  139.1378  159.5359 C.ar    1  UNL1       -0.0041
     24 C         140.9818  138.5867  158.2889 C.ar    1  UNL1       -0.0032
     25 C         142.9537  137.3773  157.1061 C.3     1  UNL1        0.0992
     26 C         143.6656  132.2308  157.1881 C.3     1  UNL1        0.0186
     27 C         142.9380  133.4333  156.6642 C.3     1  UNL1        0.0703
     28 C         143.3096  134.8040  157.1471 C.3     1  UNL1        0.0882
     29 N         142.5820  136.0066  156.6232 N.3     1  UNL1       -0.2666
     30 C         141.4828  135.8385  155.6166 C.3     1  UNL1        0.0897
     31 C         141.1112  134.4678  155.1337 C.3     1  UNL1        0.0861
     32 N         141.8388  133.2653  155.6576 N.3     1  UNL1       -0.2963
     33 H         142.2479  132.7941  154.8507 H       1  UNL1        0.1233
@<TRIPOS>BOND
     1    27    26    1
     2    27    28    1
     3    28    29    1
     4    29    25    1
     5    25    19    1
     6    19    20   ar
     7    20    21   ar
     8    21    22   ar
     9    22    18    1
    10    18     1    1
    11     1     2    2
    12     1     3   am
    13     3     4    1
    14     4     5    1
    15     5     6    1
    16     6     9    1
    17     9    11    1
    18    11    12   ar
    19    12    13   ar
    20    13    14   ar
    21    14    15   ar
    22    15    16    1
    23    15    17   ar
    24     6     7    1
    25     7     8    1
    26    22    23   ar
    27    23    24   ar
    28    29    30    1
    29    30    31    1
    30    31    32    1
    31    32    27    1
    32    24    19   ar
    33     8     3    1
    34    17    11   ar
    35     9    10    1
    36    32    33    1
@<TRIPOS>MOLECULE
*****
 33 36 0 0 0
SMALL
GASTEIGER

@<TRIPOS>ATOM
      1 C         140.2202  145.3823  161.6162 C.2     1  UNL1        0.2301
      2 O         139.2624  146.5356  161.6657 O.2     1  UNL1       -0.2745
      3 N         140.3538  144.4670  162.7970 N.am    1  UNL1       -0.2792
      4 C         139.5296  144.7050  164.0275 C.3     1  UNL1        0.0951
      5 C         139.6631  143.7897  165.2083 C.3     1  UNL1        0.0410
      6 C         140.6209  142.6364  165.1587 C.3     1  UNL1        0.0724
      7 C         141.4452  142.3983  163.9283 C.3     1  UNL1        0.0410
      8 C         141.3116  143.3136  162.7474 C.3     1  UNL1        0.0951
      9 N         140.7545  141.7211  166.3396 N.pl3   1  UNL1       -0.3339
     10 H         140.5152  140.7699  166.2547 H       1  UNL1        0.1468
     11 C         141.2526  142.2551  167.6498 C.ar    1  UNL1        0.0469
     12 C         140.3154  142.9811  168.5688 C.ar    1  UNL1        0.0144
     13 C         140.8134  143.5151  169.8791 C.ar    1  UNL1        0.0036
     14 C         142.2487  143.3230  170.2704 C.ar    1  UNL1        0.0297
     15 C         143.1859  142.5970  169.3513 C.ar    1  UNL1        0.1414
     16 F         144.6212  142.4049  169.7426 F       1  UNL1       -0.2041
     17 C         142.6878  142.0630  168.0411 C.ar    1  UNL1        0.0439
     18 C         141.0444  145.1442  160.3857 C.3     1  UNL1        0.1116
     19 C         139.0616  143.8098  156.5728 C.ar    1  UNL1       -0.0062
     20 C         139.7873  145.1218  156.6215 C.ar    1  UNL1       -0.0032
     21 C         140.4482  145.5666  157.8924 C.ar    1  UNL1       -0.0041
     22 C         140.3835  144.6994  159.1147 C.ar    1  UNL1       -0.0131
     23 C         139.6579  143.3876  159.0660 C.ar    1  UNL1       -0.0041
     24 C         138.9969  142.9428  157.7951 C.ar    1  UNL1       -0.0032
     25 C         138.4007  143.3651  155.3019 C.3     1  UNL1        0.0992
     26 C         133.9310  140.7597  155.7857 C.3     1  UNL1        0.0186
     27 C         135.4048  140.7703  155.5066 C.3     1  UNL1        0.0703
     28 C         136.1659  142.0623  155.5438 C.3     1  UNL1        0.0882
     29 N         137.6396  142.0729  155.2647 N.3     1  UNL1       -0.2666
     30 C         138.3523  140.7916  154.9484 C.3     1  UNL1        0.0897
     31 C         137.5913  139.4996  154.9112 C.3     1  UNL1        0.0861
     32 N         136.1175  139.4889  155.1903 N.3     1  UNL1       -0.2963
     33 H         135.9730  138.8675  155.9861 H       1  UNL1        0.1233
@<TRIPOS>BOND
     1    27    26    1
     2    27    28    1
     3    28    29    1
     4    29    25    1
     5    25    19    1
     6    19    20   ar
     7    20    21   ar
     8    21    22   ar
     9    22    18    1
    10    18     1    1
    11     1     2    2
    12     1     3   am
    13     3     4    1
    14     4     5    1
    15     5     6    1
    16     6     9    1
    17     9    11    1
    18    11    12   ar
    19    12    13   ar
    20    13    14   ar
    21    14    15   ar
    22    15    16    1
    23    15    17   ar
    24     6     7    1
    25     7     8    1
    26    22    23   ar
    27    23    24   ar
    28    29    30    1
    29    30    31    1
    30    31    32    1
    31    32    27    1
    32    24    19   ar
    33     8     3    1
    34    17    11   ar
    35     9    10    1
    36    32    33    1
@<TRIPOS>MOLECULE
*****
 33 36 0 0 0
SMALL
GASTEIGER

@<TRIPOS>ATOM
      1 C         138.5725  138.7624  161.7771 C.2     1  UNL1        0.2301
      2 O         139.3031  137.6548  161.0776 O.2     1  UNL1       -0.2745
      3 N         138.7005  138.9244  163.2628 N.am    1  UNL1       -0.2792
      4 C         139.5592  137.9787  164.0491 C.3     1  UNL1        0.0951
      5 C         139.6873  138.1406  165.5348 C.3     1  UNL1        0.0410
      6 C         138.9567  139.2482  166.2343 C.3     1  UNL1        0.0724
      7 C         138.0979  140.1940  165.4480 C.3     1  UNL1        0.0410
      8 C         137.9699  140.0321  163.9623 C.3     1  UNL1        0.0951
      9 N         139.0847  139.4102  167.7200 N.pl3   1  UNL1       -0.3339
     10 H         138.6248  138.7842  168.3248 H       1  UNL1        0.1468
     11 C         139.9135  140.5258  168.2842 C.ar    1  UNL1        0.0469
     12 C         139.5135  141.1792  169.5737 C.ar    1  UNL1        0.0144
     13 C         140.3423  142.2949  170.1379 C.ar    1  UNL1        0.0036
     14 C         141.5712  142.7572  169.4126 C.ar    1  UNL1        0.0297
     15 C         141.9712  142.1037  168.1229 C.ar    1  UNL1        0.1414
     16 F         143.2001  142.5660  167.3976 F       1  UNL1       -0.2041
     17 C         141.1424  140.9881  167.5588 C.ar    1  UNL1        0.0439
     18 C         137.7137  139.7082  160.9908 C.3     1  UNL1        0.1116
     19 C         139.6162  142.7014  158.2211 C.ar    1  UNL1       -0.0062
     20 C         139.1235  143.1351  159.5699 C.ar    1  UNL1       -0.0032
     21 C         138.4893  142.1374  160.4931 C.ar    1  UNL1       -0.0041
     22 C         138.3479  140.7059  160.0676 C.ar    1  UNL1       -0.0131
     23 C         138.8406  140.2723  158.7188 C.ar    1  UNL1       -0.0041
     24 C         139.4747  141.2700  157.7956 C.ar    1  UNL1       -0.0032
     25 C         140.2503  143.6992  157.2978 C.3     1  UNL1        0.0992
     26 C         139.0884  148.3571  155.3094 C.3     1  UNL1        0.0186
     27 C         138.8105  146.8875  155.4239 C.3     1  UNL1        0.0703
     28 C         139.6693  146.0281  156.3036 C.3     1  UNL1        0.0882
     29 N         139.3914  144.5585  156.4181 N.3     1  UNL1       -0.2666
     30 C         138.2547  143.9483  155.6529 C.3     1  UNL1        0.0897
     31 C         137.3959  144.8077  154.7733 C.3     1  UNL1        0.0861
     32 N         137.6738  146.2773  154.6587 N.3     1  UNL1       -0.2963
     33 H         136.8262  146.7612  154.9549 H       1  UNL1        0.1233
@<TRIPOS>BOND
     1    27    26    1
     2    27    28    1
     3    28    29    1
     4    29    25    1
     5    25    19    1
     6    19    20   ar
     7    20    21   ar
     8    21    22   ar
     9    22    18    1
    10    18     1    1
    11     1     2    2
    12     1     3   am
    13     3     4    1
    14     4     5    1
    15     5     6    1
    16     6     9    1
    17     9    11    1
    18    11    12   ar
    19    12    13   ar
    20    13    14   ar
    21    14    15   ar
    22    15    16    1
    23    15    17   ar
    24     6     7    1
    25     7     8    1
    26    22    23   ar
    27    23    24   ar
    28    29    30    1
    29    30    31    1
    30    31    32    1
    31    32    27    1
    32    24    19   ar
    33     8     3    1
    34    17    11   ar
    35     9    10    1
    36    32    33    1
@<TRIPOS>MOLECULE
*****
 33 36 0 0 0
SMALL
GASTEIGER

@<TRIPOS>ATOM
      1 C         138.5919  140.1852  159.0372 C.2     1  UNL1        0.2301
      2 O         138.5264  139.5746  157.6687 O.2     1  UNL1       -0.2745
      3 N         139.7701  141.0276  159.4271 N.am    1  UNL1       -0.2792
      4 C         140.8830  141.2594  158.4485 C.3     1  UNL1        0.0951
      5 C         142.0613  142.1018  158.8384 C.3     1  UNL1        0.0410
      6 C         142.1267  142.7124  160.2070 C.3     1  UNL1        0.0724
      7 C         141.0138  142.4805  161.1857 C.3     1  UNL1        0.0410
      8 C         139.8355  141.6381  160.7958 C.3     1  UNL1        0.0951
      9 N         143.3050  143.5548  160.5969 N.pl3   1  UNL1       -0.3339
     10 H         143.7385  144.1339  159.9291 H       1  UNL1        0.1468
     11 C         143.8227  143.5147  162.0041 C.ar    1  UNL1        0.0469
     12 C         143.4731  144.6136  162.9633 C.ar    1  UNL1        0.0144
     13 C         143.9909  144.5737  164.3706 C.ar    1  UNL1        0.0036
     14 C         144.8582  143.4348  164.8186 C.ar    1  UNL1        0.0297
     15 C         145.2077  142.3358  163.8593 C.ar    1  UNL1        0.1414
     16 F         146.0750  141.1969  164.3073 F       1  UNL1       -0.2041
     17 C         144.6900  142.3758  162.4521 C.ar    1  UNL1        0.0439
     18 C         137.4790  139.9533  160.0160 C.3     1  UNL1        0.1116
     19 C         138.4204  139.1008  164.3330 C.ar    1  UNL1       -0.0062
     20 C         138.7047  138.0660  163.2849 C.ar    1  UNL1       -0.0032
     21 C         138.3908  138.3501  161.8459 C.ar    1  UNL1       -0.0041
     22 C         137.7928  139.6691  161.4550 C.ar    1  UNL1       -0.0131
     23 C         137.5086  140.7039  162.5031 C.ar    1  UNL1       -0.0041
     24 C         137.8224  140.4197  163.9421 C.ar    1  UNL1       -0.0032
     25 C         138.7343  138.8166  165.7720 C.3     1  UNL1        0.0992
     26 C         143.9232  138.8926  165.5081 C.3     1  UNL1        0.0186
     27 C         142.6528  139.2640  166.2139 C.3     1  UNL1        0.0703
     28 C         141.3288  138.8546  165.6401 C.3     1  UNL1        0.0882
     29 N         140.0584  139.2260  166.3459 N.3     1  UNL1       -0.2666
     30 C         140.1120  140.0068  167.6255 C.3     1  UNL1        0.0897
     31 C         141.4360  140.4162  168.1993 C.3     1  UNL1        0.0861
     32 N         142.7064  140.0448  167.4935 N.3     1  UNL1       -0.2963
     33 H         143.2587  139.4945  168.1512 H       1  UNL1        0.1233
@<TRIPOS>BOND
     1    27    26    1
     2    27    28    1
     3    28    29    1
     4    29    25    1
     5    25    19    1
     6    19    20   ar
     7    20    21   ar
     8    21    22   ar
     9    22    18    1
    10    18     1    1
    11     1     2    2
    12     1     3   am
    13     3     4    1
    14     4     5    1
    15     5     6    1
    16     6     9    1
    17     9    11    1
    18    11    12   ar
    19    12    13   ar
    20    13    14   ar
    21    14    15   ar
    22    15    16    1
    23    15    17   ar
    24     6     7    1
    25     7     8    1
    26    22    23   ar
    27    23    24   ar
    28    29    30    1
    29    30    31    1
    30    31    32    1
    31    32    27    1
    32    24    19   ar
    33     8     3    1
    34    17    11   ar
    35     9    10    1
    36    32    33    1
@<TRIPOS>MOLECULE
*****
 33 36 0 0 0
SMALL
GASTEIGER

@<TRIPOS>ATOM
      1 C         138.7656  141.2283  162.2941 C.2     1  UNL1        0.2301
      2 O         137.2803  141.2230  162.0851 O.2     1  UNL1       -0.2745
      3 N         139.3343  140.9013  163.6431 N.am    1  UNL1       -0.2792
      4 C         138.4177  140.5689  164.7829 C.3     1  UNL1        0.0951
      5 C         138.9865  140.2418  166.1318 C.3     1  UNL1        0.0410
      6 C         140.4718  140.2471  166.3409 C.3     1  UNL1        0.0724
      7 C         141.3885  140.5795  165.2010 C.3     1  UNL1        0.0410
      8 C         140.8198  140.9066  163.8521 C.3     1  UNL1        0.0951
      9 N         141.0405  139.9201  167.6898 N.pl3   1  UNL1       -0.3339
     10 H         141.0673  138.9859  167.9994 H       1  UNL1        0.1468
     11 C         141.5683  141.0163  168.5671 C.ar    1  UNL1        0.0469
     12 C         142.9724  140.9477  169.0903 C.ar    1  UNL1        0.0144
     13 C         143.5003  142.0440  169.9676 C.ar    1  UNL1        0.0036
     14 C         142.6241  143.2088  170.3216 C.ar    1  UNL1        0.0297
     15 C         141.2199  143.2774  169.7984 C.ar    1  UNL1        0.1414
     16 F         140.3437  144.4422  170.1525 F       1  UNL1       -0.2041
     17 C         140.6921  142.1811  168.9212 C.ar    1  UNL1        0.0439
     18 C         139.6823  141.5607  161.1543 C.3     1  UNL1        0.1116
     19 C         140.2738  138.6100  157.8086 C.ar    1  UNL1       -0.0062
     20 C         141.0741  138.4829  159.0710 C.ar    1  UNL1       -0.0032
     21 C         140.8770  139.4665  160.1862 C.ar    1  UNL1       -0.0041
     22 C         139.8795  140.5772  160.0390 C.ar    1  UNL1       -0.0131
     23 C         139.0792  140.7042  158.7768 C.ar    1  UNL1       -0.0041
     24 C         139.2764  139.7206  157.6616 C.ar    1  UNL1       -0.0032
     25 C         140.4709  137.6264  156.6934 C.3     1  UNL1        0.0992
     26 C         144.1116  133.9540  156.1845 C.3     1  UNL1        0.0186
     27 C         143.6771  135.3819  156.0353 C.3     1  UNL1        0.0703
     28 C         142.2913  135.7902  156.4389 C.3     1  UNL1        0.0882
     29 N         141.8568  137.2181  156.2897 N.3     1  UNL1       -0.2666
     30 C         142.8079  138.2377  155.7368 C.3     1  UNL1        0.0897
     31 C         144.1936  137.8294  155.3332 C.3     1  UNL1        0.0861
     32 N         144.6282  136.4015  155.4824 N.3     1  UNL1       -0.2963
     33 H         145.4447  136.4046  156.0938 H       1  UNL1        0.1233
@<TRIPOS>BOND
     1    27    26    1
     2    27    28    1
     3    28    29    1
     4    29    25    1
     5    25    19    1
     6    19    20   ar
     7    20    21   ar
     8    21    22   ar
     9    22    18    1
    10    18     1    1
    11     1     2    2
    12     1     3   am
    13     3     4    1
    14     4     5    1
    15     5     6    1
    16     6     9    1
    17     9    11    1
    18    11    12   ar
    19    12    13   ar
    20    13    14   ar
    21    14    15   ar
    22    15    16    1
    23    15    17   ar
    24     6     7    1
    25     7     8    1
    26    22    23   ar
    27    23    24   ar
    28    29    30    1
    29    30    31    1
    30    31    32    1
    31    32    27    1
    32    24    19   ar
    33     8     3    1
    34    17    11   ar
    35     9    10    1
    36    32    33    1
@<TRIPOS>MOLECULE
*****
 33 36 0 0 0
SMALL
GASTEIGER

@<TRIPOS>ATOM
      1 C         140.5296  145.4505  161.4393 C.2     1  UNL1        0.2301
      2 O         139.2616  146.1954  161.1437 O.2     1  UNL1       -0.2745
      3 N         141.1049  144.5145  160.4181 N.am    1  UNL1       -0.2792
      4 C         140.4124  144.3233  159.1015 C.3     1  UNL1        0.0951
      5 C         140.9877  143.3872  158.0803 C.3     1  UNL1        0.0410
      6 C         142.2557  142.6423  158.3759 C.3     1  UNL1        0.0724
      7 C         142.9484  142.8335  159.6926 C.3     1  UNL1        0.0410
      8 C         142.3730  143.7696  160.7138 C.3     1  UNL1        0.0951
      9 N         142.8311  141.7063  157.3547 N.pl3   1  UNL1       -0.3339
     10 H         142.4457  140.8079  157.2380 H       1  UNL1        0.1468
     11 C         143.9936  142.1390  156.5114 C.ar    1  UNL1        0.0469
     12 C         143.7551  142.7529  155.1638 C.ar    1  UNL1        0.0144
     13 C         144.9177  143.1856  154.3204 C.ar    1  UNL1        0.0036
     14 C         146.3187  143.0044  154.8247 C.ar    1  UNL1        0.0297
     15 C         146.5571  142.3905  156.1724 C.ar    1  UNL1        0.1414
     16 F         147.9581  142.2093  156.6767 F       1  UNL1       -0.2041
     17 C         145.3946  141.9578  157.0157 C.ar    1  UNL1        0.0439
     18 C         141.2222  145.6417  162.7560 C.3     1  UNL1        0.1116
     19 C         140.5452  142.7088  166.1012 C.ar    1  UNL1       -0.0062
     20 C         139.4614  143.6725  165.7178 C.ar    1  UNL1       -0.0032
     21 C         139.6871  144.6501  164.6027 C.ar    1  UNL1       -0.0041
     22 C         140.9965  144.6641  163.8711 C.ar    1  UNL1       -0.0131
     23 C         142.0802  143.7005  164.2545 C.ar    1  UNL1       -0.0041
     24 C         141.8545  142.7228  165.3695 C.ar    1  UNL1       -0.0032
     25 C         140.3195  141.7312  167.2162 C.3     1  UNL1        0.0992
     26 C         144.5331  142.7314  170.0877 C.3     1  UNL1        0.0186
     27 C         143.0606  142.4621  169.9915 C.3     1  UNL1        0.0703
     28 C         142.4263  142.2313  168.6520 C.3     1  UNL1        0.0882
     29 N         140.9538  141.9619  168.5558 N.3     1  UNL1       -0.2666
     30 C         140.1157  141.9233  169.7992 C.3     1  UNL1        0.0897
     31 C         140.7500  142.1540  171.1387 C.3     1  UNL1        0.0861
     32 N         142.2224  142.4234  171.2348 N.3     1  UNL1       -0.2963
     33 H         142.6162  141.6970  171.8329 H       1  UNL1        0.1233
@<TRIPOS>BOND
     1    27    26    1
     2    27    28    1
     3    28    29    1
     4    29    25    1
     5    25    19    1
     6    19    20   ar
     7    20    21   ar
     8    21    22   ar
     9    22    18    1
    10    18     1    1
    11     1     2    2
    12     1     3   am
    13     3     4    1
    14     4     5    1
    15     5     6    1
    16     6     9    1
    17     9    11    1
    18    11    12   ar
    19    12    13   ar
    20    13    14   ar
    21    14    15   ar
    22    15    16    1
    23    15    17   ar
    24     6     7    1
    25     7     8    1
    26    22    23   ar
    27    23    24   ar
    28    29    30    1
    29    30    31    1
    30    31    32    1
    31    32    27    1
    32    24    19   ar
    33     8     3    1
    34    17    11   ar
    35     9    10    1
    36    32    33    1
@<TRIPOS>MOLECULE
*****
 33 36 0 0 0
SMALL
GASTEIGER

@<TRIPOS>ATOM
      1 C         138.9754  139.8268  158.5410 C.2     1  UNL1        0.2301
      2 O         137.6127  140.2510  158.0797 O.2     1  UNL1       -0.2745
      3 N         139.1491  139.2053  159.8951 N.am    1  UNL1       -0.2792
      4 C         137.9600  139.0081  160.7879 C.3     1  UNL1        0.0951
      5 C         138.1337  138.3867  162.1420 C.3     1  UNL1        0.0410
      6 C         139.4965  137.9624  162.6034 C.3     1  UNL1        0.0724
      7 C         140.6857  138.1596  161.7105 C.3     1  UNL1        0.0410
      8 C         140.5120  138.7811  160.3564 C.3     1  UNL1        0.0951
      9 N         139.6702  137.3410  163.9575 N.pl3   1  UNL1       -0.3339
     10 H         139.8469  136.3758  164.0371 H       1  UNL1        0.1468
     11 C         139.5746  138.1901  165.1902 C.ar    1  UNL1        0.0469
     12 C         138.2971  138.2314  165.9753 C.ar    1  UNL1        0.0144
     13 C         138.2014  139.0806  167.2081 C.ar    1  UNL1        0.0036
     14 C         139.3833  139.8885  167.6558 C.ar    1  UNL1        0.0297
     15 C         140.6608  139.8472  166.8707 C.ar    1  UNL1        0.1414
     16 F         141.8427  140.6552  167.3185 F       1  UNL1       -0.2041
     17 C         140.7564  138.9981  165.6380 C.ar    1  UNL1        0.0439
     18 C         140.1646  140.0240  157.6482 C.3     1  UNL1        0.1116
     19 C         141.9228  136.5216  155.4363 C.ar    1  UNL1       -0.0062
     20 C         142.8256  137.5363  156.0730 C.ar    1  UNL1       -0.0032
     21 C         142.2395  138.7038  156.8103 C.ar    1  UNL1       -0.0041
     22 C         140.7507  138.8565  156.9109 C.ar    1  UNL1       -0.0131
     23 C         139.8480  137.8419  156.2741 C.ar    1  UNL1       -0.0041
     24 C         140.4340  136.6744  155.5368 C.ar    1  UNL1       -0.0032
     25 C         142.5089  135.3542  154.6990 C.3     1  UNL1        0.0992
     26 C         145.2542  132.4450  158.0156 C.3     1  UNL1        0.0186
     27 C         144.1011  132.5972  157.0683 C.3     1  UNL1        0.0703
     28 C         143.8815  133.8995  156.3573 C.3     1  UNL1        0.0882
     29 N         142.7285  134.0518  155.4100 N.3     1  UNL1       -0.2666
     30 C         141.7951  132.9016  155.1737 C.3     1  UNL1        0.0897
     31 C         142.0147  131.5993  155.8847 C.3     1  UNL1        0.0861
     32 N         143.1677  131.4470  156.8320 N.3     1  UNL1       -0.2963
     33 H         143.7350  130.6742  156.4836 H       1  UNL1        0.1233
@<TRIPOS>BOND
     1    27    26    1
     2    27    28    1
     3    28    29    1
     4    29    25    1
     5    25    19    1
     6    19    20   ar
     7    20    21   ar
     8    21    22   ar
     9    22    18    1
    10    18     1    1
    11     1     2    2
    12     1     3   am
    13     3     4    1
    14     4     5    1
    15     5     6    1
    16     6     9    1
    17     9    11    1
    18    11    12   ar
    19    12    13   ar
    20    13    14   ar
    21    14    15   ar
    22    15    16    1
    23    15    17   ar
    24     6     7    1
    25     7     8    1
    26    22    23   ar
    27    23    24   ar
    28    29    30    1
    29    30    31    1
    30    31    32    1
    31    32    27    1
    32    24    19   ar
    33     8     3    1
    34    17    11   ar
    35     9    10    1
    36    32    33    1
