@<TRIPOS>MOLECULE
*****
 21 22 0 0 0
SMALL
GASTEIGER

@<TRIPOS>ATOM
      1 N         139.6733  141.9541  166.0790 N.pl3   1  UNL1       -0.2824
      2 H         139.8712  142.1477  167.0238 H       1  UNL1        0.1551
      3 C         140.9618  144.8802  163.7278 C.ar    1  UNL1        0.1672
      4 C         140.9577  143.7709  164.7374 C.ar    1  UNL1        0.0539
      5 C         139.6773  143.0635  165.0693 C.ar    1  UNL1        0.0536
      6 C         138.4010  143.4654  164.3916 C.ar    1  UNL1        0.0172
      7 C         138.4050  144.5747  163.3820 C.ar    1  UNL1        0.0340
      8 C         139.6854  145.2822  163.0501 C.ar    1  UNL1        0.1739
      9 F         139.6894  146.3915  162.0405 F       1  UNL1       -0.2010
     10 C         143.5544  145.0089  163.8352 C.3     1  UNL1        0.2526
     11 O         142.2422  145.5876  163.3960 O.3     1  UNL1       -0.4691
     12 C         139.3678  140.5499  165.6491 C.ar    1  UNL1        0.2215
     13 N         138.5479  139.6567  166.5324 N.ar    1  UNL1       -0.2178
     14 C         138.2424  138.2525  166.1025 C.ar    1  UNL1        0.0650
     15 C         137.4226  137.3593  166.9858 C.3     1  UNL1        0.0523
     16 C         138.7566  137.7415  164.7893 C.ar    1  UNL1        0.0492
     17 C         139.5764  138.6346  163.9061 C.ar    1  UNL1        0.1359
     18 N         139.8820  140.0389  164.3359 N.ar    1  UNL1       -0.1986
     19 N         140.0907  138.1236  162.5928 N.pl3   1  UNL1       -0.2896
     20 C         141.5166  137.6749  162.4692 C.3     1  UNL1        0.1136
     21 C         139.1790  138.0613  161.4034 C.3     1  UNL1        0.1136
@<TRIPOS>BOND
     1    10    11    1
     2    11     3    1
     3     3     4   ar
     4     4     5   ar
     5     5     1    1
     6     1    12    1
     7    12    13   ar
     8    13    14   ar
     9    14    15    1
    10    14    16   ar
    11    16    17   ar
    12    17    19    1
    13    19    20    1
    14    19    21    1
    15    17    18   ar
    16     5     6   ar
    17     6     7   ar
    18     7     8   ar
    19     8     9    1
    20     8     3   ar
    21    18    12   ar
    22     1     2    1
@<TRIPOS>MOLECULE
*****
 21 22 0 0 0
SMALL
GASTEIGER

@<TRIPOS>ATOM
      1 N         142.5776  141.5904  166.9641 N.pl3   1  UNL1       -0.2824
      2 H         143.4798  141.2637  167.1843 H       1  UNL1        0.1551
      3 C         139.2234  139.8523  168.1800 C.ar    1  UNL1        0.1672
      4 C         140.3902  140.2338  167.3181 C.ar    1  UNL1        0.0539
      5 C         141.4107  141.2089  167.8260 C.ar    1  UNL1        0.0536
      6 C         141.2642  141.8025  169.1957 C.ar    1  UNL1        0.0172
      7 C         140.0973  141.4210  170.0576 C.ar    1  UNL1        0.0340
      8 C         139.0769  140.4459  169.5497 C.ar    1  UNL1        0.1739
      9 F         137.9100  140.0644  170.4116 F       1  UNL1       -0.2010
     10 C         138.1570  138.5313  166.2133 C.3     1  UNL1        0.2526
     11 O         138.2030  138.8772  167.6721 O.3     1  UNL1       -0.4691
     12 C         142.3698  142.4696  165.7667 C.ar    1  UNL1        0.2215
     13 N         143.4796  142.6624  164.7761 N.ar    1  UNL1       -0.2178
     14 C         143.2717  143.5416  163.5786 C.ar    1  UNL1        0.0650
     15 C         144.3815  143.7344  162.5881 C.3     1  UNL1        0.0523
     16 C         141.9541  144.2281  163.3719 C.ar    1  UNL1        0.0492
     17 C         140.8444  144.0353  164.3624 C.ar    1  UNL1        0.1359
     18 N         141.0522  143.1561  165.5598 N.ar    1  UNL1       -0.1986
     19 N         139.5268  144.7218  164.1557 N.pl3   1  UNL1       -0.2896
     20 C         138.5927  144.9163  165.3131 C.3     1  UNL1        0.1136
     21 C         139.1433  145.2136  162.7915 C.3     1  UNL1        0.1136
@<TRIPOS>BOND
     1    10    11    1
     2    11     3    1
     3     3     4   ar
     4     4     5   ar
     5     5     1    1
     6     1    12    1
     7    12    13   ar
     8    13    14   ar
     9    14    15    1
    10    14    16   ar
    11    16    17   ar
    12    17    19    1
    13    19    20    1
    14    19    21    1
    15    17    18   ar
    16     5     6   ar
    17     6     7   ar
    18     7     8   ar
    19     8     9    1
    20     8     3   ar
    21    18    12   ar
    22     1     2    1
@<TRIPOS>MOLECULE
*****
 21 22 0 0 0
SMALL
GASTEIGER

@<TRIPOS>ATOM
      1 N         139.7181  139.2517  166.1939 N.pl3   1  UNL1       -0.2824
      2 H         139.4189  138.6153  166.8828 H       1  UNL1        0.1551
      3 C         137.7935  140.4221  162.9264 C.ar    1  UNL1        0.1672
      4 C         138.4140  140.4482  164.2917 C.ar    1  UNL1        0.0539
      5 C         139.0974  139.2256  164.8285 C.ar    1  UNL1        0.0536
      6 C         139.1603  137.9768  163.9998 C.ar    1  UNL1        0.0172
      7 C         138.5397  137.9507  162.6345 C.ar    1  UNL1        0.0340
      8 C         137.8563  139.1734  162.0978 C.ar    1  UNL1        0.1739
      9 F         137.2357  139.1472  160.7324 F       1  UNL1       -0.2010
     10 C         137.8140  142.9691  162.4139 C.3     1  UNL1        0.2526
     11 O         137.1100  141.6448  162.3897 O.3     1  UNL1       -0.4691
     12 C         140.7945  140.2475  166.5095 C.ar    1  UNL1        0.2215
     13 N         141.9316  140.4513  165.5526 N.ar    1  UNL1       -0.2178
     14 C         143.0081  141.4471  165.8682 C.ar    1  UNL1        0.0650
     15 C         144.1452  141.6509  164.9115 C.3     1  UNL1        0.0523
     16 C         142.9474  142.2392  167.1407 C.ar    1  UNL1        0.0492
     17 C         141.8103  142.0354  168.0974 C.ar    1  UNL1        0.1359
     18 N         140.7338  141.0396  167.7818 N.ar    1  UNL1       -0.1986
     19 N         141.7495  142.8275  169.3699 N.pl3   1  UNL1       -0.2896
     20 C         142.9329  142.8585  170.2911 C.3     1  UNL1        0.1136
     21 C         140.5055  143.5884  169.7210 C.3     1  UNL1        0.1136
@<TRIPOS>BOND
     1    10    11    1
     2    11     3    1
     3     3     4   ar
     4     4     5   ar
     5     5     1    1
     6     1    12    1
     7    12    13   ar
     8    13    14   ar
     9    14    15    1
    10    14    16   ar
    11    16    17   ar
    12    17    19    1
    13    19    20    1
    14    19    21    1
    15    17    18   ar
    16     5     6   ar
    17     6     7   ar
    18     7     8   ar
    19     8     9    1
    20     8     3   ar
    21    18    12   ar
    22     1     2    1
@<TRIPOS>MOLECULE
*****
 21 22 0 0 0
SMALL
GASTEIGER

@<TRIPOS>ATOM
      1 N         141.1507  141.6360  166.7457 N.pl3   1  UNL1       -0.2824
      2 H         141.1741  141.7792  167.7195 H       1  UNL1        0.1551
      3 C         141.8252  144.4567  164.0367 C.ar    1  UNL1        0.1672
      4 C         141.1005  143.5139  164.9509 C.ar    1  UNL1        0.0539
      5 C         141.8754  142.5789  165.8314 C.ar    1  UNL1        0.0536
      6 C         143.3750  142.5866  165.7975 C.ar    1  UNL1        0.0172
      7 C         144.0996  143.5294  164.8833 C.ar    1  UNL1        0.0340
      8 C         143.3247  144.4644  164.0028 C.ar    1  UNL1        0.1739
      9 F         144.0495  145.4073  163.0885 F       1  UNL1       -0.2010
     10 C         139.5876  145.1592  162.9188 C.3     1  UNL1        0.2526
     11 O         141.0503  145.3918  163.1562 O.3     1  UNL1       -0.4691
     12 C         140.3903  140.4751  166.1763 C.ar    1  UNL1        0.2215
     13 N         139.2482  139.8778  166.9437 N.ar    1  UNL1       -0.2178
     14 C         138.4878  138.7169  166.3743 C.ar    1  UNL1        0.0650
     15 C         137.3457  138.1196  167.1416 C.3     1  UNL1        0.0523
     16 C         138.8696  138.1534  165.0376 C.ar    1  UNL1        0.0492
     17 C         140.0117  138.7507  164.2703 C.ar    1  UNL1        0.1359
     18 N         140.7720  139.9116  164.8397 N.ar    1  UNL1       -0.1986
     19 N         140.3935  138.1872  162.9336 N.pl3   1  UNL1       -0.2896
     20 C         141.8118  137.7759  162.6705 C.3     1  UNL1        0.1136
     21 C         139.3570  138.0349  161.8601 C.3     1  UNL1        0.1136
@<TRIPOS>BOND
     1    10    11    1
     2    11     3    1
     3     3     4   ar
     4     4     5   ar
     5     5     1    1
     6     1    12    1
     7    12    13   ar
     8    13    14   ar
     9    14    15    1
    10    14    16   ar
    11    16    17   ar
    12    17    19    1
    13    19    20    1
    14    19    21    1
    15    17    18   ar
    16     5     6   ar
    17     6     7   ar
    18     7     8   ar
    19     8     9    1
    20     8     3   ar
    21    18    12   ar
    22     1     2    1
@<TRIPOS>MOLECULE
*****
 21 22 0 0 0
SMALL
GASTEIGER

@<TRIPOS>ATOM
      1 N         140.2938  141.8984  166.3962 N.pl3   1  UNL1       -0.2824
      2 H         140.0028  142.2330  167.2752 H       1  UNL1        0.1551
      3 C         143.6366  143.1989  164.6979 C.ar    1  UNL1        0.1672
      4 C         142.6970  142.3846  165.5368 C.ar    1  UNL1        0.0539
      5 C         141.2335  142.7128  165.5572 C.ar    1  UNL1        0.0536
      6 C         140.7096  143.8553  164.7386 C.ar    1  UNL1        0.0172
      7 C         141.6492  144.6696  163.8996 C.ar    1  UNL1        0.0340
      8 C         143.1127  144.3414  163.8793 C.ar    1  UNL1        0.1739
      9 F         144.0524  145.1558  163.0402 F       1  UNL1       -0.2010
     10 C         145.5979  141.7129  163.8641 C.3     1  UNL1        0.2526
     11 O         145.1001  142.8707  164.6775 O.3     1  UNL1       -0.4691
     12 C         139.7976  140.5742  165.8960 C.ar    1  UNL1        0.2215
     13 N         138.8356  139.7729  166.7224 N.ar    1  UNL1       -0.2178
     14 C         138.3394  138.4488  166.2221 C.ar    1  UNL1        0.0650
     15 C         137.3775  137.6475  167.0484 C.3     1  UNL1        0.0523
     16 C         138.8051  137.9258  164.8955 C.ar    1  UNL1        0.0492
     17 C         139.7669  138.7271  164.0692 C.ar    1  UNL1        0.1359
     18 N         140.2632  140.0513  164.5695 N.ar    1  UNL1       -0.1986
     19 N         140.2326  138.2041  162.7427 N.pl3   1  UNL1       -0.2896
     20 C         139.2777  138.1313  161.5881 C.3     1  UNL1        0.1136
     21 C         141.6531  137.7540  162.5707 C.3     1  UNL1        0.1136
@<TRIPOS>BOND
     1    10    11    1
     2    11     3    1
     3     3     4   ar
     4     4     5   ar
     5     5     1    1
     6     1    12    1
     7    12    13   ar
     8    13    14   ar
     9    14    15    1
    10    14    16   ar
    11    16    17   ar
    12    17    19    1
    13    19    20    1
    14    19    21    1
    15    17    18   ar
    16     5     6   ar
    17     6     7   ar
    18     7     8   ar
    19     8     9    1
    20     8     3   ar
    21    18    12   ar
    22     1     2    1
@<TRIPOS>MOLECULE
*****
 21 22 0 0 0
SMALL
GASTEIGER

@<TRIPOS>ATOM
      1 N         138.9743  141.0011  165.7874 N.pl3   1  UNL1       -0.2824
      2 H         138.1794  140.4230  165.8448 H       1  UNL1        0.1551
      3 C         138.4266  143.2982  162.5978 C.ar    1  UNL1        0.1672
      4 C         138.4380  142.0941  163.4922 C.ar    1  UNL1        0.0539
      5 C         138.9628  142.2053  164.8930 C.ar    1  UNL1        0.0536
      6 C         139.4762  143.5205  165.3994 C.ar    1  UNL1        0.0172
      7 C         139.4648  144.7246  164.5050 C.ar    1  UNL1        0.0340
      8 C         138.9400  144.6134  163.1042 C.ar    1  UNL1        0.1739
      9 F         138.9286  145.8176  162.2098 F       1  UNL1       -0.2010
     10 C         138.8049  142.7248  160.0922 C.3     1  UNL1        0.2526
     11 O         137.9018  143.1870  161.1970 O.3     1  UNL1       -0.4691
     12 C         140.1967  140.6778  166.5943 C.ar    1  UNL1        0.2215
     13 N         141.2174  139.7184  166.0577 N.ar    1  UNL1       -0.2178
     14 C         142.4398  139.3950  166.8646 C.ar    1  UNL1        0.0650
     15 C         143.4605  138.4357  166.3282 C.3     1  UNL1        0.0523
     16 C         142.6416  140.0311  168.2081 C.ar    1  UNL1        0.0492
     17 C         141.6209  140.9904  168.7446 C.ar    1  UNL1        0.1359
     18 N         140.3985  141.3138  167.9377 N.ar    1  UNL1       -0.1986
     19 N         141.8226  141.6265  170.0881 N.pl3   1  UNL1       -0.2896
     20 C         141.0185  141.1621  171.2661 C.3     1  UNL1        0.1136
     21 C         142.8285  142.7269  170.2535 C.3     1  UNL1        0.1136
@<TRIPOS>BOND
     1    10    11    1
     2    11     3    1
     3     3     4   ar
     4     4     5   ar
     5     5     1    1
     6     1    12    1
     7    12    13   ar
     8    13    14   ar
     9    14    15    1
    10    14    16   ar
    11    16    17   ar
    12    17    19    1
    13    19    20    1
    14    19    21    1
    15    17    18   ar
    16     5     6   ar
    17     6     7   ar
    18     7     8   ar
    19     8     9    1
    20     8     3   ar
    21    18    12   ar
    22     1     2    1
@<TRIPOS>MOLECULE
*****
 21 22 0 0 0
SMALL
GASTEIGER

@<TRIPOS>ATOM
      1 N         143.2263  139.7327  165.9084 N.pl3   1  UNL1       -0.2824
      2 H         143.7702  138.9171  165.9996 H       1  UNL1        0.1551
      3 C         143.4631  143.2685  164.1217 C.ar    1  UNL1        0.1672
      4 C         143.0325  142.1810  165.0608 C.ar    1  UNL1        0.0539
      5 C         143.6570  140.8202  164.9693 C.ar    1  UNL1        0.0536
      6 C         144.7120  140.5470  163.9387 C.ar    1  UNL1        0.0172
      7 C         145.1426  141.6345  162.9996 C.ar    1  UNL1        0.0340
      8 C         144.5182  142.9952  163.0912 C.ar    1  UNL1        0.1739
      9 F         144.9488  144.0828  162.1521 F       1  UNL1       -0.2010
     10 C         141.7453  145.0182  163.2629 C.3     1  UNL1        0.2526
     11 O         142.8387  144.6292  164.2133 O.3     1  UNL1       -0.4691
     12 C         141.9670  139.8877  166.7084 C.ar    1  UNL1        0.2215
     13 N         140.6695  139.3564  166.1752 N.ar    1  UNL1       -0.2178
     14 C         139.4102  139.5115  166.9753 C.ar    1  UNL1        0.0650
     15 C         138.1127  138.9802  166.4421 C.3     1  UNL1        0.0523
     16 C         139.4484  140.1979  168.3085 C.ar    1  UNL1        0.0492
     17 C         140.7459  140.7292  168.8416 C.ar    1  UNL1        0.1359
     18 N         142.0052  140.5741  168.0416 N.ar    1  UNL1       -0.1986
     19 N         140.7841  141.4156  170.1749 N.pl3   1  UNL1       -0.2896
     20 C         141.7815  140.9879  171.2103 C.3     1  UNL1        0.1136
     21 C         139.8249  142.5297  170.4726 C.3     1  UNL1        0.1136
@<TRIPOS>BOND
     1    10    11    1
     2    11     3    1
     3     3     4   ar
     4     4     5   ar
     5     5     1    1
     6     1    12    1
     7    12    13   ar
     8    13    14   ar
     9    14    15    1
    10    14    16   ar
    11    16    17   ar
    12    17    19    1
    13    19    20    1
    14    19    21    1
    15    17    18   ar
    16     5     6   ar
    17     6     7   ar
    18     7     8   ar
    19     8     9    1
    20     8     3   ar
    21    18    12   ar
    22     1     2    1
@<TRIPOS>MOLECULE
*****
 21 22 0 0 0
SMALL
GASTEIGER

@<TRIPOS>ATOM
      1 N         137.9207  139.9323  165.3307 N.pl3   1  UNL1       -0.2824
      2 H         137.0793  139.5363  165.6539 H       1  UNL1        0.1551
      3 C         137.9159  142.8583  162.6496 C.ar    1  UNL1        0.1672
      4 C         137.8809  142.1441  163.9681 C.ar    1  UNL1        0.0539
      5 C         137.9557  140.6466  164.0121 C.ar    1  UNL1        0.0536
      6 C         138.0654  139.8633  162.7376 C.ar    1  UNL1        0.0172
      7 C         138.1004  140.5776  161.4191 C.ar    1  UNL1        0.0340
      8 C         138.0257  142.0751  161.3751 C.ar    1  UNL1        0.1739
      9 F         138.0606  142.7894  160.0564 F       1  UNL1       -0.2010
     10 C         139.1008  145.1683  162.5509 C.3     1  UNL1        0.2526
     11 O         137.8412  144.3558  162.6056 O.3     1  UNL1       -0.4691
     12 C         139.1678  139.8215  166.1570 C.ar    1  UNL1        0.2215
     13 N         139.1249  140.1288  167.6246 N.ar    1  UNL1       -0.2178
     14 C         140.3719  140.0180  168.4508 C.ar    1  UNL1        0.0650
     15 C         140.3291  140.3252  169.9183 C.3     1  UNL1        0.0523
     16 C         141.6618  139.5998  167.8094 C.ar    1  UNL1        0.0492
     17 C         141.7047  139.2925  166.3418 C.ar    1  UNL1        0.1359
     18 N         140.4576  139.4033  165.5156 N.ar    1  UNL1       -0.1986
     19 N         142.9946  138.8744  165.7004 N.pl3   1  UNL1       -0.2896
     20 C         143.9890  138.0620  166.4759 C.3     1  UNL1        0.1136
     21 C         143.2901  139.2686  164.2837 C.3     1  UNL1        0.1136
@<TRIPOS>BOND
     1    10    11    1
     2    11     3    1
     3     3     4   ar
     4     4     5   ar
     5     5     1    1
     6     1    12    1
     7    12    13   ar
     8    13    14   ar
     9    14    15    1
    10    14    16   ar
    11    16    17   ar
    12    17    19    1
    13    19    20    1
    14    19    21    1
    15    17    18   ar
    16     5     6   ar
    17     6     7   ar
    18     7     8   ar
    19     8     9    1
    20     8     3   ar
    21    18    12   ar
    22     1     2    1
@<TRIPOS>MOLECULE
*****
 21 22 0 0 0
SMALL
GASTEIGER

@<TRIPOS>ATOM
      1 N         138.0883  139.9811  165.3876 N.pl3   1  UNL1       -0.2824
      2 H         137.2561  139.6374  165.7858 H       1  UNL1        0.1551
      3 C         137.9623  142.7098  162.5086 C.ar    1  UNL1        0.1672
      4 C         137.9843  142.0908  163.8747 C.ar    1  UNL1        0.0539
      5 C         138.0663  140.6002  164.0214 C.ar    1  UNL1        0.0536
      6 C         138.1262  139.7287  162.8021 C.ar    1  UNL1        0.0172
      7 C         138.1042  140.3478  161.4360 C.ar    1  UNL1        0.0340
      8 C         138.0222  141.8383  161.2893 C.ar    1  UNL1        0.1739
      9 F         138.0002  142.4574  159.9231 F       1  UNL1       -0.2010
     10 C         138.9966  145.0661  162.8663 C.3     1  UNL1        0.2526
     11 O         137.8804  144.2004  162.3619 O.3     1  UNL1       -0.4691
     12 C         139.3783  139.8859  166.1471 C.ar    1  UNL1        0.2215
     13 N         140.5766  139.2443  165.5126 N.ar    1  UNL1       -0.2178
     14 C         141.8666  139.1491  166.2720 C.ar    1  UNL1        0.0650
     15 C         143.0649  138.5076  165.6376 C.3     1  UNL1        0.0523
     16 C         141.9583  139.6953  167.6661 C.ar    1  UNL1        0.0492
     17 C         140.7600  140.3368  168.3006 C.ar    1  UNL1        0.1359
     18 N         139.4701  140.4321  167.5411 N.ar    1  UNL1       -0.1986
     19 N         140.8517  140.8831  169.6946 N.pl3   1  UNL1       -0.2896
     20 C         139.8338  141.8715  170.1812 C.3     1  UNL1        0.1136
     21 C         141.9613  140.4409  170.6019 C.3     1  UNL1        0.1136
@<TRIPOS>BOND
     1    10    11    1
     2    11     3    1
     3     3     4   ar
     4     4     5   ar
     5     5     1    1
     6     1    12    1
     7    12    13   ar
     8    13    14   ar
     9    14    15    1
    10    14    16   ar
    11    16    17   ar
    12    17    19    1
    13    19    20    1
    14    19    21    1
    15    17    18   ar
    16     5     6   ar
    17     6     7   ar
    18     7     8   ar
    19     8     9    1
    20     8     3   ar
    21    18    12   ar
    22     1     2    1
