@<TRIPOS>MOLECULE
*****
 30 33 0 0 0
SMALL
GASTEIGER

@<TRIPOS>ATOM
      1 C         143.5441  139.6218  160.9504 C.ar    1  UNL1        0.0598
      2 C         143.2581  138.7409  162.1302 C.ar    1  UNL1        0.0422
      3 C         143.3931  139.2839  163.5220 C.ar    1  UNL1        0.1484
      4 C         143.8140  140.7080  163.7338 C.ar    1  UNL1        0.0717
      5 C         144.0309  141.5158  164.9789 C.ar    1  UNL1        0.0390
      6 C         144.4509  142.8961  164.5685 C.ar    1  UNL1        0.1234
      7 C         144.7719  144.0319  165.4943 C.3     1  UNL1        0.0725
      8 O         144.4937  142.9413  163.0698 O.2     1  UNL1       -0.4576
      9 C         144.1000  141.5889  162.5539 C.ar    1  UNL1        0.1479
     10 C         143.9650  141.0458  161.1622 C.ar    1  UNL1        0.0422
     11 N         142.5179  137.9011  159.2963 N.am    1  UNL1       -0.2646
     12 C         143.4091  139.0787  159.5586 C.2     1  UNL1        0.2508
     13 O         144.1653  139.7133  158.4294 O.2     1  UNL1       -0.2698
     14 H         142.0215  137.4846  160.0375 H       1  UNL1        0.1566
     15 C         141.9778  135.7288  153.7295 C.3     1  UNL1        0.0538
     16 C         142.1128  136.2719  155.1212 C.ar    1  UNL1        0.0786
     17 C         143.2989  135.8986  155.9601 C.ar    1  UNL1        0.1150
     18 N         143.4340  136.4416  157.3518 N.ar    1  UNL1       -0.2262
     19 C         142.3829  137.3580  157.9046 C.ar    1  UNL1        0.1538
     20 C         141.1967  137.7312  157.0656 C.ar    1  UNL1        0.1328
     21 N         141.0617  137.1882  155.6739 N.ar    1  UNL1       -0.2436
     22 O         143.1070  138.4029  164.7019 O.3     1  UNL1       -0.4534
     23 C         142.2594  138.9118  165.8299 C.ar    1  UNL1        0.1453
     24 C         142.8507  139.0720  167.1991 C.ar    1  UNL1        0.0382
     25 C         142.0031  139.5809  168.3272 C.ar    1  UNL1        0.0134
     26 C         140.5642  139.9295  168.0861 C.ar    1  UNL1        0.0686
     27 C         139.9730  139.7693  166.7169 C.ar    1  UNL1        0.0134
     28 C         140.8205  139.2604  165.5888 C.ar    1  UNL1        0.0382
     29 C         139.7165  140.4385  169.2142 C.1     1  UNL1        0.1004
     30 N         138.8688  140.9473  170.3422 N.1     1  UNL1       -0.1908
@<TRIPOS>BOND
     1    15    16    1
     2    16    17   ar
     3    17    18   ar
     4    18    19   ar
     5    19    11    1
     6    11    12   am
     7    12    13    2
     8    12     1    1
     9     1     2   ar
    10     2     3   ar
    11     3    22    1
    12    22    23    1
    13    23    24   ar
    14    24    25   ar
    15    25    26   ar
    16    26    29    1
    17    29    30    3
    18    26    27   ar
    19    27    28   ar
    20     3     4   ar
    21     4     5   ar
    22     5     6   ar
    23     6     7    1
    24     6     8   ar
    25     8     9   ar
    26     9    10   ar
    27    19    20   ar
    28    20    21   ar
    29    21    16   ar
    30    10     1   ar
    31    28    23   ar
    32     9     4   ar
    33    11    14    1
@<TRIPOS>MOLECULE
*****
 30 33 0 0 0
SMALL
GASTEIGER

@<TRIPOS>ATOM
      1 C         143.3589  139.8656  159.7208 C.ar    1  UNL1        0.0598
      2 C         143.3670  139.1591  161.0439 C.ar    1  UNL1        0.0422
      3 C         143.4597  139.9493  162.3156 C.ar    1  UNL1        0.1484
      4 C         143.5443  141.4460  162.2640 C.ar    1  UNL1        0.0717
      5 C         143.6441  142.4834  163.3428 C.ar    1  UNL1        0.0390
      6 C         143.6977  143.8311  162.6864 C.ar    1  UNL1        0.1234
      7 C         143.8000  145.1514  163.3908 C.3     1  UNL1        0.0725
      8 O         143.6310  143.6266  161.2019 O.2     1  UNL1       -0.4576
      9 C         143.5362  142.1525  160.9408 C.ar    1  UNL1        0.1479
     10 C         143.4435  141.3623  159.6692 C.ar    1  UNL1        0.0422
     11 N         142.5351  137.7658  158.4316 N.am    1  UNL1       -0.2646
     12 C         143.2663  139.0754  158.4491 C.2     1  UNL1        0.2508
     13 O         143.9047  139.5948  157.1952 O.2     1  UNL1       -0.2698
     14 H         142.1160  137.4249  159.2546 H       1  UNL1        0.1566
     15 C         142.1642  134.6050  153.3451 C.3     1  UNL1        0.0538
     16 C         142.2570  135.3952  154.6168 C.ar    1  UNL1        0.0786
     17 C         143.5736  135.5280  155.3229 C.ar    1  UNL1        0.1150
     18 N         143.6664  136.3182  156.5945 N.ar    1  UNL1       -0.2262
     19 C         142.4424  136.9756  157.1600 C.ar    1  UNL1        0.1538
     20 C         141.1257  136.8428  156.4537 C.ar    1  UNL1        0.1328
     21 N         141.0330  136.0526  155.1821 N.ar    1  UNL1       -0.2436
     22 O         143.4678  139.2427  163.6388 O.3     1  UNL1       -0.4534
     23 C         142.1795  139.0022  164.3684 C.ar    1  UNL1        0.1453
     24 C         141.3011  137.8503  163.9794 C.ar    1  UNL1        0.0382
     25 C         140.0128  137.6097  164.7091 C.ar    1  UNL1        0.0134
     26 C         139.6029  138.5211  165.8277 C.ar    1  UNL1        0.0686
     27 C         140.4814  139.6730  166.2167 C.ar    1  UNL1        0.0134
     28 C         141.7697  139.9136  165.4871 C.ar    1  UNL1        0.0382
     29 C         138.3146  138.2806  166.5575 C.1     1  UNL1        0.1004
     30 N         137.0263  138.0402  167.2872 N.1     1  UNL1       -0.1908
@<TRIPOS>BOND
     1    15    16    1
     2    16    17   ar
     3    17    18   ar
     4    18    19   ar
     5    19    11    1
     6    11    12   am
     7    12    13    2
     8    12     1    1
     9     1     2   ar
    10     2     3   ar
    11     3    22    1
    12    22    23    1
    13    23    24   ar
    14    24    25   ar
    15    25    26   ar
    16    26    29    1
    17    29    30    3
    18    26    27   ar
    19    27    28   ar
    20     3     4   ar
    21     4     5   ar
    22     5     6   ar
    23     6     7    1
    24     6     8   ar
    25     8     9   ar
    26     9    10   ar
    27    19    20   ar
    28    20    21   ar
    29    21    16   ar
    30    10     1   ar
    31    28    23   ar
    32     9     4   ar
    33    11    14    1
@<TRIPOS>MOLECULE
*****
 30 33 0 0 0
SMALL
GASTEIGER

@<TRIPOS>ATOM
      1 C         141.8480  141.3789  161.7585 C.ar    1  UNL1        0.0598
      2 C         140.6648  141.3941  162.6802 C.ar    1  UNL1        0.0422
      3 C         140.7309  140.6797  163.9975 C.ar    1  UNL1        0.1484
      4 C         141.9804  139.9501  164.3930 C.ar    1  UNL1        0.0717
      5 C         142.3371  139.1619  165.6183 C.ar    1  UNL1        0.0390
      6 C         143.7409  138.6595  165.4539 C.ar    1  UNL1        0.1234
      7 C         144.5005  137.8258  166.4428 C.3     1  UNL1        0.0725
      8 O         144.2517  139.1373  164.1269 O.2     1  UNL1       -0.4576
      9 C         143.1637  139.9349  163.4713 C.ar    1  UNL1        0.1479
     10 C         143.0975  140.6493  162.1540 C.ar    1  UNL1        0.0422
     11 N         141.1505  143.4513  160.3554 N.am    1  UNL1       -0.2646
     12 C         141.7819  142.0934  160.4412 C.2     1  UNL1        0.2508
     13 O         142.3470  141.4499  159.2098 O.2     1  UNL1       -0.2698
     14 H         140.7795  143.8736  161.1636 H       1  UNL1        0.1566
     15 C         140.8858  146.3092  155.0863 C.3     1  UNL1        0.0538
     16 C         140.9520  145.5947  156.4036 C.ar    1  UNL1        0.0786
     17 C         142.0754  145.8797  157.3558 C.ar    1  UNL1        0.1150
     18 N         142.1417  145.1653  158.6730 N.ar    1  UNL1       -0.2262
     19 C         141.0843  144.1658  159.0381 C.ar    1  UNL1        0.1538
     20 C         139.9609  143.8808  158.0859 C.ar    1  UNL1        0.1328
     21 N         139.8947  144.5953  156.7687 N.ar    1  UNL1       -0.2436
     22 O         139.5475  140.6949  164.9192 O.3     1  UNL1       -0.4534
     23 C         139.7352  141.0008  166.3756 C.ar    1  UNL1        0.1453
     24 C         140.3403  142.3075  166.7956 C.ar    1  UNL1        0.0382
     25 C         140.5279  142.6135  168.2520 C.ar    1  UNL1        0.0134
     26 C         140.1105  141.6127  169.2884 C.ar    1  UNL1        0.0686
     27 C         139.5055  140.3060  168.8685 C.ar    1  UNL1        0.0134
     28 C         139.3178  140.0000  167.4121 C.ar    1  UNL1        0.0382
     29 C         140.2982  141.9186  170.7450 C.1     1  UNL1        0.1004
     30 N         140.4857  142.2244  172.2014 N.1     1  UNL1       -0.1908
@<TRIPOS>BOND
     1    15    16    1
     2    16    17   ar
     3    17    18   ar
     4    18    19   ar
     5    19    11    1
     6    11    12   am
     7    12    13    2
     8    12     1    1
     9     1     2   ar
    10     2     3   ar
    11     3    22    1
    12    22    23    1
    13    23    24   ar
    14    24    25   ar
    15    25    26   ar
    16    26    29    1
    17    29    30    3
    18    26    27   ar
    19    27    28   ar
    20     3     4   ar
    21     4     5   ar
    22     5     6   ar
    23     6     7    1
    24     6     8   ar
    25     8     9   ar
    26     9    10   ar
    27    19    20   ar
    28    20    21   ar
    29    21    16   ar
    30    10     1   ar
    31    28    23   ar
    32     9     4   ar
    33    11    14    1
@<TRIPOS>MOLECULE
*****
 30 33 0 0 0
SMALL
GASTEIGER

@<TRIPOS>ATOM
      1 C         142.5473  143.1169  160.8607 C.ar    1  UNL1        0.0598
      2 C         142.7857  141.9659  161.7924 C.ar    1  UNL1        0.0422
      3 C         142.0662  141.9038  163.1072 C.ar    1  UNL1        0.1484
      4 C         141.1083  142.9928  163.4901 C.ar    1  UNL1        0.0717
      5 C         140.2610  143.2009  164.7102 C.ar    1  UNL1        0.0390
      6 C         139.4989  144.4806  164.5324 C.ar    1  UNL1        0.1234
      7 C         138.5305  145.0735  165.5125 C.3     1  UNL1        0.0725
      8 O         139.8752  145.0633  163.2024 O.2     1  UNL1       -0.4576
      9 C         140.8699  144.1438  162.5582 C.ar    1  UNL1        0.1479
     10 C         141.5894  144.2058  161.2435 C.ar    1  UNL1        0.0422
     11 N         144.3096  142.1537  159.2125 N.am    1  UNL1       -0.2646
     12 C         143.2667  143.1790  159.5459 C.2     1  UNL1        0.2508
     13 O         142.9433  144.2663  158.5646 O.2     1  UNL1       -0.2698
     14 H         144.5219  141.4400  159.8566 H       1  UNL1        0.1566
     15 C         147.1875  142.4019  153.9536 C.3     1  UNL1        0.0538
     16 C         146.4681  142.3398  155.2684 C.ar    1  UNL1        0.0786
     17 C         147.1555  142.7941  156.5217 C.ar    1  UNL1        0.1150
     18 N         146.4362  142.7321  157.8365 N.ar    1  UNL1       -0.2262
     19 C         145.0291  142.2157  157.8978 C.ar    1  UNL1        0.1538
     20 C         144.3416  141.7614  156.6444 C.ar    1  UNL1        0.1328
     21 N         145.0611  141.8235  155.3297 N.ar    1  UNL1       -0.2436
     22 O         142.3047  140.7527  164.0390 O.3     1  UNL1       -0.4534
     23 C         141.1572  140.1463  164.7909 C.ar    1  UNL1        0.1453
     24 C         140.0472  139.4669  164.0450 C.ar    1  UNL1        0.0382
     25 C         138.8996  138.8604  164.7968 C.ar    1  UNL1        0.0134
     26 C         138.8620  138.9334  166.2945 C.ar    1  UNL1        0.0686
     27 C         139.9720  139.6128  167.0405 C.ar    1  UNL1        0.0134
     28 C         141.1195  140.2192  166.2887 C.ar    1  UNL1        0.0382
     29 C         137.7144  138.3269  167.0465 C.1     1  UNL1        0.1004
     30 N         136.5669  137.7205  167.7985 N.1     1  UNL1       -0.1908
@<TRIPOS>BOND
     1    15    16    1
     2    16    17   ar
     3    17    18   ar
     4    18    19   ar
     5    19    11    1
     6    11    12   am
     7    12    13    2
     8    12     1    1
     9     1     2   ar
    10     2     3   ar
    11     3    22    1
    12    22    23    1
    13    23    24   ar
    14    24    25   ar
    15    25    26   ar
    16    26    29    1
    17    29    30    3
    18    26    27   ar
    19    27    28   ar
    20     3     4   ar
    21     4     5   ar
    22     5     6   ar
    23     6     7    1
    24     6     8   ar
    25     8     9   ar
    26     9    10   ar
    27    19    20   ar
    28    20    21   ar
    29    21    16   ar
    30    10     1   ar
    31    28    23   ar
    32     9     4   ar
    33    11    14    1
@<TRIPOS>MOLECULE
*****
 30 33 0 0 0
SMALL
GASTEIGER

@<TRIPOS>ATOM
      1 C         138.4644  140.5553  160.7042 C.ar    1  UNL1        0.0598
      2 C         138.4903  139.5840  161.8469 C.ar    1  UNL1        0.0422
      3 C         138.4735  140.0874  163.2598 C.ar    1  UNL1        0.1484
      4 C         138.4307  141.5623  163.5300 C.ar    1  UNL1        0.0717
      5 C         138.4059  142.3484  164.8073 C.ar    1  UNL1        0.0390
      6 C         138.3647  143.8056  164.4539 C.ar    1  UNL1        0.1234
      7 C         138.3303  144.9478  165.4256 C.3     1  UNL1        0.0725
      8 O         138.3639  143.9201  162.9583 O.2     1  UNL1       -0.4576
      9 C         138.4047  142.5336  162.3872 C.ar    1  UNL1        0.1479
     10 C         138.4216  142.0302  160.9744 C.ar    1  UNL1        0.0422
     11 N         139.7365  139.4619  158.7203 N.am    1  UNL1       -0.2646
     12 C         138.4812  140.0519  159.2913 C.2     1  UNL1        0.2508
     13 O         137.2428  140.1384  158.4494 O.2     1  UNL1       -0.2698
     14 H         140.5494  139.4051  159.2729 H       1  UNL1        0.1566
     15 C         139.8042  137.4482  153.0687 C.3     1  UNL1        0.0538
     16 C         139.7873  137.9516  154.4817 C.ar    1  UNL1        0.0786
     17 C         139.3334  137.0522  155.5929 C.ar    1  UNL1        0.1150
     18 N         139.3164  137.5555  157.0058 N.ar    1  UNL1       -0.2262
     19 C         139.7535  138.9585  157.3074 C.ar    1  UNL1        0.1538
     20 C         140.2074  139.8579  156.1961 C.ar    1  UNL1        0.1328
     21 N         140.2243  139.3544  154.7832 N.ar    1  UNL1       -0.2436
     22 O         138.4994  139.1160  164.4025 O.3     1  UNL1       -0.4534
     23 C         139.4424  139.3316  165.5489 C.ar    1  UNL1        0.1453
     24 C         138.9036  139.5748  166.9276 C.ar    1  UNL1        0.0382
     25 C         139.8465  139.7904  168.0740 C.ar    1  UNL1        0.0134
     26 C         141.3281  139.7629  167.8419 C.ar    1  UNL1        0.0686
     27 C         141.8669  139.5197  166.4633 C.ar    1  UNL1        0.0134
     28 C         140.9240  139.3041  165.3168 C.ar    1  UNL1        0.0382
     29 C         142.2712  139.9785  168.9884 C.1     1  UNL1        0.1004
     30 N         143.2141  140.1941  170.1349 N.1     1  UNL1       -0.1908
@<TRIPOS>BOND
     1    15    16    1
     2    16    17   ar
     3    17    18   ar
     4    18    19   ar
     5    19    11    1
     6    11    12   am
     7    12    13    2
     8    12     1    1
     9     1     2   ar
    10     2     3   ar
    11     3    22    1
    12    22    23    1
    13    23    24   ar
    14    24    25   ar
    15    25    26   ar
    16    26    29    1
    17    29    30    3
    18    26    27   ar
    19    27    28   ar
    20     3     4   ar
    21     4     5   ar
    22     5     6   ar
    23     6     7    1
    24     6     8   ar
    25     8     9   ar
    26     9    10   ar
    27    19    20   ar
    28    20    21   ar
    29    21    16   ar
    30    10     1   ar
    31    28    23   ar
    32     9     4   ar
    33    11    14    1
@<TRIPOS>MOLECULE
*****
 30 33 0 0 0
SMALL
GASTEIGER

@<TRIPOS>ATOM
      1 C         142.3121  138.5218  160.9972 C.ar    1  UNL1        0.0598
      2 C         143.2650  138.7504  162.1326 C.ar    1  UNL1        0.0422
      3 C         142.8001  138.5782  163.5484 C.ar    1  UNL1        0.1484
      4 C         141.3820  138.1773  163.8284 C.ar    1  UNL1        0.0717
      5 C         140.6426  137.9333  165.1105 C.ar    1  UNL1        0.0390
      6 C         139.2325  137.5538  164.7673 C.ar    1  UNL1        0.1234
      7 C         138.1453  137.2229  165.7463 C.3     1  UNL1        0.0725
      8 O         139.1005  137.5634  163.2731 O.2     1  UNL1       -0.4576
      9 C         140.4290  137.9487  162.6929 C.ar    1  UNL1        0.1479
     10 C         140.8940  138.1210  161.2772 C.ar    1  UNL1        0.0422
     11 N         142.9985  140.0701  159.0270 N.am    1  UNL1       -0.2646
     12 C         142.7771  138.6941  159.5814 C.2     1  UNL1        0.2508
     13 O         143.0205  137.4904  158.7203 O.2     1  UNL1       -0.2698
     14 H         142.8387  140.8602  159.5923 H       1  UNL1        0.1566
     15 C         144.8584  140.7594  153.3643 C.3     1  UNL1        0.0538
     16 C         144.3934  140.5871  154.7800 C.ar    1  UNL1        0.0786
     17 C         145.3949  140.3984  155.8806 C.ar    1  UNL1        0.1150
     18 N         144.9300  140.2260  157.2963 N.ar    1  UNL1       -0.2262
     19 C         143.4635  140.2425  157.6114 C.ar    1  UNL1        0.1538
     20 C         142.4620  140.4312  156.5107 C.ar    1  UNL1        0.1328
     21 N         142.9270  140.6035  155.0950 N.ar    1  UNL1       -0.2436
     22 O         143.7532  138.8068  164.6839 O.3     1  UNL1       -0.4534
     23 C         143.3788  139.7336  165.8023 C.ar    1  UNL1        0.1453
     24 C         143.3436  141.2149  165.5687 C.ar    1  UNL1        0.0382
     25 C         142.9692  142.1418  166.6870 C.ar    1  UNL1        0.0134
     26 C         142.6300  141.5874  168.0389 C.ar    1  UNL1        0.0686
     27 C         142.6653  140.1061  168.2725 C.ar    1  UNL1        0.0134
     28 C         143.0396  139.1792  167.1542 C.ar    1  UNL1        0.0382
     29 C         142.2556  142.5143  169.1574 C.1     1  UNL1        0.1004
     30 N         141.8814  143.4412  170.2757 N.1     1  UNL1       -0.1908
@<TRIPOS>BOND
     1    15    16    1
     2    16    17   ar
     3    17    18   ar
     4    18    19   ar
     5    19    11    1
     6    11    12   am
     7    12    13    2
     8    12     1    1
     9     1     2   ar
    10     2     3   ar
    11     3    22    1
    12    22    23    1
    13    23    24   ar
    14    24    25   ar
    15    25    26   ar
    16    26    29    1
    17    29    30    3
    18    26    27   ar
    19    27    28   ar
    20     3     4   ar
    21     4     5   ar
    22     5     6   ar
    23     6     7    1
    24     6     8   ar
    25     8     9   ar
    26     9    10   ar
    27    19    20   ar
    28    20    21   ar
    29    21    16   ar
    30    10     1   ar
    31    28    23   ar
    32     9     4   ar
    33    11    14    1
@<TRIPOS>MOLECULE
*****
 30 33 0 0 0
SMALL
GASTEIGER

@<TRIPOS>ATOM
      1 C         140.1965  142.6097  161.6411 C.ar    1  UNL1        0.0598
      2 C         141.2431  142.8262  162.6935 C.ar    1  UNL1        0.0422
      3 C         141.3622  141.8678  163.8413 C.ar    1  UNL1        0.1484
      4 C         140.4346  140.6928  163.9365 C.ar    1  UNL1        0.0717
      5 C         140.3141  139.5883  164.9443 C.ar    1  UNL1        0.0390
      6 C         139.1930  138.6892  164.5146 C.ar    1  UNL1        0.1234
      7 C         138.7261  137.4575  165.2322 C.3     1  UNL1        0.0725
      8 O         138.6206  139.2380  163.2413 O.2     1  UNL1       -0.4576
      9 C         139.3880  140.4763  162.8841 C.ar    1  UNL1        0.1479
     10 C         139.2689  141.4348  161.7364 C.ar    1  UNL1        0.0422
     11 N         140.4134  143.1180  159.1025 N.am    1  UNL1       -0.2646
     12 C         140.0774  143.5681  160.4934 C.2     1  UNL1        0.2508
     13 O         139.6223  144.9765  160.7364 O.2     1  UNL1       -0.2698
     14 H         140.7121  142.1936  158.9430 H       1  UNL1        0.1566
     15 C         139.9371  146.9514  154.5114 C.3     1  UNL1        0.0538
     16 C         140.0562  145.9930  155.6592 C.ar    1  UNL1        0.0786
     17 C         141.1407  146.1756  156.6792 C.ar    1  UNL1        0.1150
     18 N         141.2598  145.2173  157.8270 N.ar    1  UNL1       -0.2262
     19 C         140.2943  144.0764  157.9548 C.ar    1  UNL1        0.1538
     20 C         139.2098  143.8938  156.9347 C.ar    1  UNL1        0.1328
     21 N         139.0907  144.8522  155.7869 N.ar    1  UNL1       -0.2436
     22 O         142.4089  142.0844  164.8938 O.3     1  UNL1       -0.4534
     23 C         142.0242  142.0923  166.3436 C.ar    1  UNL1        0.1453
     24 C         142.8559  141.3459  167.3442 C.ar    1  UNL1        0.0382
     25 C         142.4714  141.3538  168.7940 C.ar    1  UNL1        0.0134
     26 C         141.2552  142.1081  169.2432 C.ar    1  UNL1        0.0686
     27 C         140.4235  142.8545  168.2426 C.ar    1  UNL1        0.0134
     28 C         140.8080  142.8466  166.7928 C.ar    1  UNL1        0.0382
     29 C         140.8705  142.1161  170.6931 C.1     1  UNL1        0.1004
     30 N         140.4859  142.1242  172.1429 N.1     1  UNL1       -0.1908
@<TRIPOS>BOND
     1    15    16    1
     2    16    17   ar
     3    17    18   ar
     4    18    19   ar
     5    19    11    1
     6    11    12   am
     7    12    13    2
     8    12     1    1
     9     1     2   ar
    10     2     3   ar
    11     3    22    1
    12    22    23    1
    13    23    24   ar
    14    24    25   ar
    15    25    26   ar
    16    26    29    1
    17    29    30    3
    18    26    27   ar
    19    27    28   ar
    20     3     4   ar
    21     4     5   ar
    22     5     6   ar
    23     6     7    1
    24     6     8   ar
    25     8     9   ar
    26     9    10   ar
    27    19    20   ar
    28    20    21   ar
    29    21    16   ar
    30    10     1   ar
    31    28    23   ar
    32     9     4   ar
    33    11    14    1
@<TRIPOS>MOLECULE
*****
 30 33 0 0 0
SMALL
GASTEIGER

@<TRIPOS>ATOM
      1 C         140.4945  139.9075  161.7638 C.ar    1  UNL1        0.0598
      2 C         141.4999  139.7911  162.8707 C.ar    1  UNL1        0.0422
      3 C         141.4794  140.7685  164.0085 C.ar    1  UNL1        0.1484
      4 C         140.4534  141.8623  164.0391 C.ar    1  UNL1        0.0717
      5 C         140.1895  142.9635  165.0228 C.ar    1  UNL1        0.0390
      6 C         139.0209  143.7606  164.5236 C.ar    1  UNL1        0.1234
      7 C         138.4166  144.9563  165.1981 C.3     1  UNL1        0.0725
      8 O         138.5626  143.1519  163.2315 O.2     1  UNL1       -0.4576
      9 C         139.4480  141.9787  162.9321 C.ar    1  UNL1        0.1479
     10 C         139.4685  141.0013  161.7944 C.ar    1  UNL1        0.0422
     11 N         141.3860  139.1873  159.4321 N.am    1  UNL1       -0.2646
     12 C         140.5151  138.9301  160.6260 C.2     1  UNL1        0.2508
     13 O         139.6647  137.6958  160.6822 O.2     1  UNL1       -0.2698
     14 H         141.9441  139.9974  159.3953 H       1  UNL1        0.1566
     15 C         141.4682  135.2780  154.8811 C.3     1  UNL1        0.0538
     16 C         141.4477  136.2554  156.0189 C.ar    1  UNL1        0.0786
     17 C         142.6586  136.4194  156.8887 C.ar    1  UNL1        0.1150
     18 N         142.6382  137.3966  158.0264 N.ar    1  UNL1       -0.2262
     19 C         141.4065  138.2100  158.2944 C.ar    1  UNL1        0.1538
     20 C         140.1955  138.0459  157.4246 C.ar    1  UNL1        0.1328
     21 N         140.2161  137.0686  156.2869 N.ar    1  UNL1       -0.2436
     22 O         142.4849  140.6520  165.1155 O.3     1  UNL1       -0.4534
     23 C         142.0813  140.9481  166.5295 C.ar    1  UNL1        0.1453
     24 C         140.9756  140.1652  167.1733 C.ar    1  UNL1        0.0382
     25 C         140.5719  140.4611  168.5873 C.ar    1  UNL1        0.0134
     26 C         141.2739  141.5400  169.3575 C.ar    1  UNL1        0.0686
     27 C         142.3796  142.3229  168.7137 C.ar    1  UNL1        0.0134
     28 C         142.7833  142.0269  167.2997 C.ar    1  UNL1        0.0382
     29 C         140.8703  141.8361  170.7716 C.1     1  UNL1        0.1004
     30 N         140.4668  142.1322  172.1856 N.1     1  UNL1       -0.1908
@<TRIPOS>BOND
     1    15    16    1
     2    16    17   ar
     3    17    18   ar
     4    18    19   ar
     5    19    11    1
     6    11    12   am
     7    12    13    2
     8    12     1    1
     9     1     2   ar
    10     2     3   ar
    11     3    22    1
    12    22    23    1
    13    23    24   ar
    14    24    25   ar
    15    25    26   ar
    16    26    29    1
    17    29    30    3
    18    26    27   ar
    19    27    28   ar
    20     3     4   ar
    21     4     5   ar
    22     5     6   ar
    23     6     7    1
    24     6     8   ar
    25     8     9   ar
    26     9    10   ar
    27    19    20   ar
    28    20    21   ar
    29    21    16   ar
    30    10     1   ar
    31    28    23   ar
    32     9     4   ar
    33    11    14    1
@<TRIPOS>MOLECULE
*****
 30 33 0 0 0
SMALL
GASTEIGER

@<TRIPOS>ATOM
      1 C         138.9878  141.6912  160.3922 C.ar    1  UNL1        0.0598
      2 C         140.4354  141.6042  160.7750 C.ar    1  UNL1        0.0422
      3 C         140.9182  142.2563  162.0367 C.ar    1  UNL1        0.1484
      4 C         139.9531  142.9955  162.9155 C.ar    1  UNL1        0.0717
      5 C         140.1355  143.7325  164.2091 C.ar    1  UNL1        0.0390
      6 C         138.8006  144.2750  164.6258 C.ar    1  UNL1        0.1234
      7 C         138.5220  145.0782  165.8616 C.3     1  UNL1        0.0725
      8 O         137.7931  143.8733  163.5897 O.2     1  UNL1       -0.4576
      9 C         138.5054  143.0825  162.5326 C.ar    1  UNL1        0.1479
     10 C         138.0227  142.4303  161.2710 C.ar    1  UNL1        0.0422
     11 N         138.0666  141.8830  157.9705 N.am    1  UNL1       -0.2646
     12 C         138.5051  141.0391  159.1305 C.2     1  UNL1        0.2508
     13 O         138.4610  139.5433  159.0288 O.2     1  UNL1       -0.2698
     14 H         138.0956  142.8648  158.0372 H       1  UNL1        0.1566
     15 C         136.1359  139.2748  152.9237 C.3     1  UNL1        0.0538
     16 C         136.6185  139.9269  154.1855 C.ar    1  UNL1        0.0786
     17 C         135.6907  140.0771  155.3544 C.ar    1  UNL1        0.1150
     18 N         136.1733  140.7291  156.6161 N.ar    1  UNL1       -0.2262
     19 C         137.5839  141.2309  156.7088 C.ar    1  UNL1        0.1538
     20 C         138.5118  141.0807  155.5398 C.ar    1  UNL1        0.1328
     21 N         138.0291  140.4287  154.2781 N.ar    1  UNL1       -0.2436
     22 O         142.3659  142.1693  162.4195 O.3     1  UNL1       -0.4534
     23 C         142.8204  141.1325  163.4035 C.ar    1  UNL1        0.1453
     24 C         144.2722  140.7647  163.4886 C.ar    1  UNL1        0.0382
     25 C         144.7268  139.7279  164.4726 C.ar    1  UNL1        0.0134
     26 C         143.7297  139.0588  165.3715 C.ar    1  UNL1        0.0686
     27 C         142.2780  139.4265  165.2865 C.ar    1  UNL1        0.0134
     28 C         141.8233  140.4634  164.3025 C.ar    1  UNL1        0.0382
     29 C         144.1843  138.0219  166.3556 C.1     1  UNL1        0.1004
     30 N         144.6389  136.9850  167.3396 N.1     1  UNL1       -0.1908
@<TRIPOS>BOND
     1    15    16    1
     2    16    17   ar
     3    17    18   ar
     4    18    19   ar
     5    19    11    1
     6    11    12   am
     7    12    13    2
     8    12     1    1
     9     1     2   ar
    10     2     3   ar
    11     3    22    1
    12    22    23    1
    13    23    24   ar
    14    24    25   ar
    15    25    26   ar
    16    26    29    1
    17    29    30    3
    18    26    27   ar
    19    27    28   ar
    20     3     4   ar
    21     4     5   ar
    22     5     6   ar
    23     6     7    1
    24     6     8   ar
    25     8     9   ar
    26     9    10   ar
    27    19    20   ar
    28    20    21   ar
    29    21    16   ar
    30    10     1   ar
    31    28    23   ar
    32     9     4   ar
    33    11    14    1
