@<TRIPOS>MOLECULE
*****
 26 29 0 0 0
SMALL
GASTEIGER

@<TRIPOS>ATOM
      1 C         139.9174  140.2301  167.2105 C.3     1  UNL1        0.1810
      2 C         139.6913  140.5044  168.6678 C.3     1  UNL1        0.0557
      3 C         139.0391  140.8898  169.9625 C.3     1  UNL1        0.0685
      4 C         140.3146  140.5916  170.6937 C.2     1  UNL1        0.1505
      5 O         140.7553  140.6533  172.1261 O.2     1  UNL1       -0.2961
      6 C         140.9667  140.2063  169.3989 C.3     1  UNL1        0.0630
      7 C         141.9810  139.7476  168.3935 C.3     1  UNL1        0.0271
      8 C         141.3325  139.7624  167.0410 C.3     1  UNL1        0.0983
      9 N         141.9846  139.3770  165.7463 N.3     1  UNL1       -0.2697
     10 C         143.2759  140.0207  165.3362 C.3     1  UNL1        0.0722
     11 C         143.9280  139.6353  164.0415 C.3     1  UNL1        0.0187
     12 C         143.2888  138.6063  163.1569 C.3     1  UNL1        0.0183
     13 C         141.9975  137.9626  163.5670 C.3     1  UNL1        0.0670
     14 N         141.3583  136.9336  162.6824 N.3     1  UNL1       -0.3211
     15 C         141.3453  138.3479  164.8617 C.3     1  UNL1        0.0878
     16 H         141.9328  136.7960  161.8509 H       1  UNL1        0.1189
     17 H         140.4300  137.2528  162.4053 H       1  UNL1        0.1189
     18 O         138.9059  140.3945  166.1151 O.3     1  UNL1       -0.4778
     19 C         139.1087  143.9642  163.3828 C.ar    1  UNL1        0.0686
     20 C         138.1332  142.8598  163.1026 C.ar    1  UNL1        0.0134
     21 C         138.0656  141.6699  164.0134 C.ar    1  UNL1        0.0376
     22 C         138.9735  141.5844  165.2043 C.ar    1  UNL1        0.1385
     23 C         139.9490  142.6889  165.4845 C.ar    1  UNL1        0.0376
     24 C         140.0166  143.8788  164.5737 C.ar    1  UNL1        0.0134
     25 N         139.2440  146.3441  161.5612 N.1     1  UNL1       -0.1908
     26 C         139.1764  145.1542  162.4719 C.1     1  UNL1        0.1004
@<TRIPOS>BOND
     1    25    26    3
     2    26    19    1
     3    19    20   ar
     4    20    21   ar
     5    21    22   ar
     6    22    18    1
     7     1    18    1
     8     1     2    1
     9     2     3    1
    10     3     4    1
    11     4     5    2
    12     4     6    1
    13     6     7    1
    14     7     8    1
    15     8     9    1
    16     9    10    1
    17    10    11    1
    18    11    12    1
    19    12    13    1
    20    13    14    1
    21    13    15    1
    22    22    23   ar
    23    23    24   ar
    24    24    19   ar
    25     8     1    1
    26    15     9    1
    27     6     2    1
    28    14    16    1
    29    14    17    1
@<TRIPOS>MOLECULE
*****
 26 29 0 0 0
SMALL
GASTEIGER

@<TRIPOS>ATOM
      1 C         141.2763  141.7633  167.2012 C.3     1  UNL1        0.1810
      2 C         141.4583  142.1611  168.6359 C.3     1  UNL1        0.0557
      3 C         141.9953  142.8011  169.8819 C.3     1  UNL1        0.0685
      4 C         140.9318  142.1191  170.6905 C.2     1  UNL1        0.1505
      5 O         140.5595  142.0893  172.1433 O.2     1  UNL1       -0.2961
      6 C         140.3948  141.4791  169.4446 C.3     1  UNL1        0.0630
      7 C         139.5555  140.6597  168.5096 C.3     1  UNL1        0.0271
      8 C         140.1003  140.8354  167.1232 C.3     1  UNL1        0.0983
      9 N         139.5633  140.1954  165.8772 N.3     1  UNL1       -0.2697
     10 C         140.0707  138.8512  165.4461 C.3     1  UNL1        0.0722
     11 C         139.5337  138.2114  164.2002 C.3     1  UNL1        0.0187
     12 C         138.4895  138.9156  163.3855 C.3     1  UNL1        0.0183
     13 C         137.9822  140.2597  163.8168 C.3     1  UNL1        0.0670
     14 N         136.9380  140.9639  163.0021 N.3     1  UNL1       -0.3211
     15 C         138.5191  140.8997  165.0626 C.3     1  UNL1        0.0878
     16 H         136.6903  140.3891  162.1967 H       1  UNL1        0.1189
     17 H         137.3046  141.8598  162.6806 H       1  UNL1        0.1189
     18 O         142.1217  142.2142  166.0471 O.3     1  UNL1       -0.4778
     19 C         140.4218  145.0325  162.9784 C.ar    1  UNL1        0.0686
     20 C         139.6728  144.7688  164.2509 C.ar    1  UNL1        0.0134
     21 C         140.2394  143.8293  165.2738 C.ar    1  UNL1        0.0376
     22 C         141.5551  143.1536  165.0242 C.ar    1  UNL1        0.1385
     23 C         142.3042  143.4173  163.7517 C.ar    1  UNL1        0.0376
     24 C         141.7375  144.3567  162.7288 C.ar    1  UNL1        0.0134
     25 N         139.2885  146.9114  160.9325 N.1     1  UNL1       -0.1908
     26 C         139.8552  145.9719  161.9554 C.1     1  UNL1        0.1004
@<TRIPOS>BOND
     1    25    26    3
     2    26    19    1
     3    19    20   ar
     4    20    21   ar
     5    21    22   ar
     6    22    18    1
     7     1    18    1
     8     1     2    1
     9     2     3    1
    10     3     4    1
    11     4     5    2
    12     4     6    1
    13     6     7    1
    14     7     8    1
    15     8     9    1
    16     9    10    1
    17    10    11    1
    18    11    12    1
    19    12    13    1
    20    13    14    1
    21    13    15    1
    22    22    23   ar
    23    23    24   ar
    24    24    19   ar
    25     8     1    1
    26    15     9    1
    27     6     2    1
    28    14    16    1
    29    14    17    1
@<TRIPOS>MOLECULE
*****
 26 29 0 0 0
SMALL
GASTEIGER

@<TRIPOS>ATOM
      1 C         141.0744  142.8231  163.8202 C.3     1  UNL1        0.1810
      2 C         140.8936  144.1591  163.1627 C.3     1  UNL1        0.0557
      3 C         141.0927  145.5912  162.7632 C.3     1  UNL1        0.0685
      4 C         139.8946  145.5072  161.8645 C.2     1  UNL1        0.1505
      5 O         139.1882  146.4604  160.9467 O.2     1  UNL1       -0.2961
      6 C         139.6954  144.0751  162.2640 C.3     1  UNL1        0.0630
      7 C         139.1359  142.6871  162.3661 C.3     1  UNL1        0.0271
      8 C         139.9881  141.9134  163.3279 C.3     1  UNL1        0.0983
      9 N         139.7890  140.4813  163.7274 N.3     1  UNL1       -0.2697
     10 C         138.7656  140.1276  164.7655 C.3     1  UNL1        0.0722
     11 C         138.5665  138.6955  165.1648 C.3     1  UNL1        0.0187
     12 C         139.3907  137.6172  164.5262 C.3     1  UNL1        0.0183
     13 C         140.4140  137.9710  163.4881 C.3     1  UNL1        0.0670
     14 N         141.2382  136.8926  162.8494 N.3     1  UNL1       -0.3211
     15 C         140.6132  139.4030  163.0886 C.3     1  UNL1        0.0878
     16 H         140.9725  135.9872  163.2367 H       1  UNL1        0.1189
     17 H         142.2263  137.0650  163.0349 H       1  UNL1        0.1189
     18 O         142.1523  142.4605  164.7983 O.3     1  UNL1       -0.4778
     19 C         141.2335  142.2957  169.2004 C.ar    1  UNL1        0.0686
     20 C         142.5873  141.8861  168.7010 C.ar    1  UNL1        0.0134
     21 C         142.8936  141.9411  167.2336 C.ar    1  UNL1        0.0376
     22 C         141.8460  142.4056  166.2656 C.ar    1  UNL1        0.1385
     23 C         140.4922  142.8151  166.7651 C.ar    1  UNL1        0.0376
     24 C         140.1860  142.7602  168.2324 C.ar    1  UNL1        0.0134
     25 N         140.6210  142.1858  172.1351 N.1     1  UNL1       -0.1908
     26 C         140.9272  142.2407  170.6678 C.1     1  UNL1        0.1004
@<TRIPOS>BOND
     1    25    26    3
     2    26    19    1
     3    19    20   ar
     4    20    21   ar
     5    21    22   ar
     6    22    18    1
     7     1    18    1
     8     1     2    1
     9     2     3    1
    10     3     4    1
    11     4     5    2
    12     4     6    1
    13     6     7    1
    14     7     8    1
    15     8     9    1
    16     9    10    1
    17    10    11    1
    18    11    12    1
    19    12    13    1
    20    13    14    1
    21    13    15    1
    22    22    23   ar
    23    23    24   ar
    24    24    19   ar
    25     8     1    1
    26    15     9    1
    27     6     2    1
    28    14    16    1
    29    14    17    1
@<TRIPOS>MOLECULE
*****
 26 29 0 0 0
SMALL
GASTEIGER

@<TRIPOS>ATOM
      1 C         140.9720  142.1988  167.2245 C.3     1  UNL1        0.1810
      2 C         141.1764  142.5259  168.6741 C.3     1  UNL1        0.0557
      3 C         141.6713  143.1697  169.9353 C.3     1  UNL1        0.0685
      4 C         140.8096  142.2465  170.7447 C.2     1  UNL1        0.1505
      5 O         140.5502  142.0490  172.2089 O.2     1  UNL1       -0.2961
      6 C         140.3147  141.6027  169.4835 C.3     1  UNL1        0.0630
      7 C         139.5777  140.7051  168.5342 C.3     1  UNL1        0.0271
      8 C         139.9840  141.0735  167.1381 C.3     1  UNL1        0.0983
      9 N         139.4891  140.4297  165.8769 N.3     1  UNL1       -0.2697
     10 C         140.0544  139.1122  165.4356 C.3     1  UNL1        0.0722
     11 C         139.5595  138.4684  164.1745 C.3     1  UNL1        0.0187
     12 C         138.4993  139.1420  163.3546 C.3     1  UNL1        0.0183
     13 C         137.9340  140.4595  163.7959 C.3     1  UNL1        0.0670
     14 N         136.8739  141.1331  162.9759 N.3     1  UNL1       -0.3211
     15 C         138.4289  141.1034  165.0570 C.3     1  UNL1        0.0878
     16 H         136.6596  140.5598  162.1599 H       1  UNL1        0.1189
     17 H         137.2092  142.0468  162.6709 H       1  UNL1        0.1189
     18 O         141.6387  142.8778  166.0650 O.3     1  UNL1       -0.4778
     19 C         143.2100  140.4357  162.6274 C.ar    1  UNL1        0.0686
     20 C         142.0905  141.4091  162.4059 C.ar    1  UNL1        0.0134
     21 C         141.5667  142.2232  163.5518 C.ar    1  UNL1        0.0376
     22 C         142.1624  142.0638  164.9191 C.ar    1  UNL1        0.1385
     23 C         143.2819  141.0903  165.1406 C.ar    1  UNL1        0.0376
     24 C         143.8057  140.2762  163.9948 C.ar    1  UNL1        0.0134
     25 N         144.2575  138.8075  160.3357 N.1     1  UNL1       -0.1908
     26 C         143.7338  139.6216  161.4816 C.1     1  UNL1        0.1004
@<TRIPOS>BOND
     1    25    26    3
     2    26    19    1
     3    19    20   ar
     4    20    21   ar
     5    21    22   ar
     6    22    18    1
     7     1    18    1
     8     1     2    1
     9     2     3    1
    10     3     4    1
    11     4     5    2
    12     4     6    1
    13     6     7    1
    14     7     8    1
    15     8     9    1
    16     9    10    1
    17    10    11    1
    18    11    12    1
    19    12    13    1
    20    13    14    1
    21    13    15    1
    22    22    23   ar
    23    23    24   ar
    24    24    19   ar
    25     8     1    1
    26    15     9    1
    27     6     2    1
    28    14    16    1
    29    14    17    1
@<TRIPOS>MOLECULE
*****
 26 29 0 0 0
SMALL
GASTEIGER

@<TRIPOS>ATOM
      1 C         140.0331  140.3840  167.1456 C.3     1  UNL1        0.1810
      2 C         140.0419  140.7941  168.5885 C.3     1  UNL1        0.0557
      3 C         139.6272  141.3672  169.9113 C.3     1  UNL1        0.0685
      4 C         140.9318  140.9307  170.5093 C.2     1  UNL1        0.1505
      5 O         141.5611  141.0273  171.8675 O.2     1  UNL1       -0.2961
      6 C         141.3465  140.3577  169.1865 C.3     1  UNL1        0.0630
      7 C         142.1440  139.6778  168.1133 C.3     1  UNL1        0.0271
      8 C         141.3323  139.6941  166.8520 C.3     1  UNL1        0.0983
      9 N         141.7470  139.1211  165.5292 N.3     1  UNL1       -0.2697
     10 C         140.9102  138.0617  164.8754 C.3     1  UNL1        0.0722
     11 C         141.3249  137.4887  163.5526 C.3     1  UNL1        0.0187
     12 C         142.5763  137.9750  162.8837 C.3     1  UNL1        0.0183
     13 C         143.4130  139.0344  163.5376 C.3     1  UNL1        0.0670
     14 N         144.6644  139.5207  162.8687 N.3     1  UNL1       -0.3211
     15 C         142.9984  139.6075  164.8603 C.3     1  UNL1        0.0878
     16 H         144.7918  139.0267  161.9854 H       1  UNL1        0.1189
     17 H         145.4650  139.3441  163.4756 H       1  UNL1        0.1189
     18 O         138.9205  140.6220  166.1682 O.3     1  UNL1       -0.4778
     19 C         139.1286  144.1050  163.3266 C.ar    1  UNL1        0.0686
     20 C         140.0656  144.0340  164.4957 C.ar    1  UNL1        0.0134
     21 C         139.9962  142.8729  165.4430 C.ar    1  UNL1        0.0376
     22 C         138.9899  141.7830  165.2210 C.ar    1  UNL1        0.1385
     23 C         138.0529  141.8541  164.0518 C.ar    1  UNL1        0.0376
     24 C         138.1223  143.0151  163.1046 C.ar    1  UNL1        0.0134
     25 N         139.2673  146.4271  161.4321 N.1     1  UNL1       -0.1908
     26 C         139.1980  145.2661  162.3793 C.1     1  UNL1        0.1004
@<TRIPOS>BOND
     1    25    26    3
     2    26    19    1
     3    19    20   ar
     4    20    21   ar
     5    21    22   ar
     6    22    18    1
     7     1    18    1
     8     1     2    1
     9     2     3    1
    10     3     4    1
    11     4     5    2
    12     4     6    1
    13     6     7    1
    14     7     8    1
    15     8     9    1
    16     9    10    1
    17    10    11    1
    18    11    12    1
    19    12    13    1
    20    13    14    1
    21    13    15    1
    22    22    23   ar
    23    23    24   ar
    24    24    19   ar
    25     8     1    1
    26    15     9    1
    27     6     2    1
    28    14    16    1
    29    14    17    1
@<TRIPOS>MOLECULE
*****
 26 29 0 0 0
SMALL
GASTEIGER

@<TRIPOS>ATOM
      1 C         139.9785  140.3883  166.6134 C.3     1  UNL1        0.1810
      2 C         139.6279  140.4412  168.0709 C.3     1  UNL1        0.0557
      3 C         139.6356  140.7972  169.5281 C.3     1  UNL1        0.0685
      4 C         138.4774  139.8726  169.7601 C.2     1  UNL1        0.1505
      5 O         137.6639  139.4705  170.9545 O.2     1  UNL1       -0.2961
      6 C         138.4698  139.5165  168.3030 C.3     1  UNL1        0.0630
      7 C         138.1046  138.8922  166.9889 C.3     1  UNL1        0.0271
      8 C         139.0371  139.4310  165.9447 C.3     1  UNL1        0.0983
      9 N         139.0294  139.0749  164.4876 N.3     1  UNL1       -0.2697
     10 C         139.9913  138.0516  163.9605 C.3     1  UNL1        0.0722
     11 C         139.9836  137.6956  162.5034 C.3     1  UNL1        0.0187
     12 C         139.0141  138.3629  161.5734 C.3     1  UNL1        0.0183
     13 C         138.0524  139.3862  162.1005 C.3     1  UNL1        0.0670
     14 N         137.0829  140.0534  161.1704 N.3     1  UNL1       -0.3211
     15 C         138.0600  139.7422  163.5576 C.3     1  UNL1        0.0878
     16 H         137.2164  139.6941  160.2252 H       1  UNL1        0.1189
     17 H         137.2437  141.0606  161.1771 H       1  UNL1        0.1189
     18 O         141.0776  141.1577  165.9425 O.3     1  UNL1       -0.4778
     19 C         140.0748  144.5199  163.1248 C.ar    1  UNL1        0.0686
     20 C         140.8935  143.3582  162.6450 C.ar    1  UNL1        0.0134
     21 C         141.2278  142.2374  163.5843 C.ar    1  UNL1        0.0376
     22 C         140.7433  142.2784  165.0033 C.ar    1  UNL1        0.1385
     23 C         139.9246  143.4401  165.4830 C.ar    1  UNL1        0.0376
     24 C         139.5903  144.5608  164.5438 C.ar    1  UNL1        0.0134
     25 N         139.4062  146.7613  161.2463 N.1     1  UNL1       -0.1908
     26 C         139.7405  145.6406  162.1855 C.1     1  UNL1        0.1004
@<TRIPOS>BOND
     1    25    26    3
     2    26    19    1
     3    19    20   ar
     4    20    21   ar
     5    21    22   ar
     6    22    18    1
     7     1    18    1
     8     1     2    1
     9     2     3    1
    10     3     4    1
    11     4     5    2
    12     4     6    1
    13     6     7    1
    14     7     8    1
    15     8     9    1
    16     9    10    1
    17    10    11    1
    18    11    12    1
    19    12    13    1
    20    13    14    1
    21    13    15    1
    22    22    23   ar
    23    23    24   ar
    24    24    19   ar
    25     8     1    1
    26    15     9    1
    27     6     2    1
    28    14    16    1
    29    14    17    1
@<TRIPOS>MOLECULE
*****
 26 29 0 0 0
SMALL
GASTEIGER

@<TRIPOS>ATOM
      1 C         140.7875  140.9905  167.1827 C.3     1  UNL1        0.1810
      2 C         140.2496  140.8741  168.5781 C.3     1  UNL1        0.0557
      3 C         139.3131  140.6903  169.7354 C.3     1  UNL1        0.0685
      4 C         140.4550  140.8793  170.6895 C.2     1  UNL1        0.1505
      5 O         140.6002  140.8829  172.1825 O.2     1  UNL1       -0.2961
      6 C         141.3916  141.0631  169.5323 C.3     1  UNL1        0.0630
      7 C         142.6351  141.2963  168.7265 C.3     1  UNL1        0.0271
      8 C         142.2617  141.2514  167.2745 C.3     1  UNL1        0.0983
      9 N         143.1983  141.4352  166.1172 N.3     1  UNL1       -0.2697
     10 C         143.7708  142.7902  165.8237 C.3     1  UNL1        0.0722
     11 C         144.7073  142.9740  164.6664 C.3     1  UNL1        0.0187
     12 C         145.0713  141.8028  163.8028 C.3     1  UNL1        0.0183
     13 C         144.4988  140.4478  164.0965 C.3     1  UNL1        0.0670
     14 N         144.8628  139.2766  163.2329 N.3     1  UNL1       -0.3211
     15 C         143.5623  140.2639  165.2537 C.3     1  UNL1        0.0878
     16 H         145.5039  139.5807  162.5001 H       1  UNL1        0.1189
     17 H         144.0189  138.8920  162.8082 H       1  UNL1        0.1189
     18 O         139.9909  140.8676  165.9177 O.3     1  UNL1       -0.4778
     19 C         139.6558  144.3760  163.1198 C.ar    1  UNL1        0.0686
     20 C         140.3179  143.1110  162.6603 C.ar    1  UNL1        0.0134
     21 C         140.4296  141.9414  163.5930 C.ar    1  UNL1        0.0376
     22 C         139.8792  142.0370  164.9851 C.ar    1  UNL1        0.1385
     23 C         139.2171  143.3022  165.4445 C.ar    1  UNL1        0.0376
     24 C         139.1054  144.4717  164.5119 C.ar    1  UNL1        0.0134
     25 N         139.4324  146.7151  161.2545 N.1     1  UNL1       -0.1908
     26 C         139.5441  145.5456  162.1871 C.1     1  UNL1        0.1004
@<TRIPOS>BOND
     1    25    26    3
     2    26    19    1
     3    19    20   ar
     4    20    21   ar
     5    21    22   ar
     6    22    18    1
     7     1    18    1
     8     1     2    1
     9     2     3    1
    10     3     4    1
    11     4     5    2
    12     4     6    1
    13     6     7    1
    14     7     8    1
    15     8     9    1
    16     9    10    1
    17    10    11    1
    18    11    12    1
    19    12    13    1
    20    13    14    1
    21    13    15    1
    22    22    23   ar
    23    23    24   ar
    24    24    19   ar
    25     8     1    1
    26    15     9    1
    27     6     2    1
    28    14    16    1
    29    14    17    1
@<TRIPOS>MOLECULE
*****
 26 29 0 0 0
SMALL
GASTEIGER

@<TRIPOS>ATOM
      1 C         139.7100  139.7764  167.3918 C.3     1  UNL1        0.1810
      2 C         139.5103  140.2835  168.7893 C.3     1  UNL1        0.0557
      3 C         138.9163  140.5399  170.1426 C.3     1  UNL1        0.0685
      4 C         140.0982  141.3918  170.5000 C.2     1  UNL1        0.1505
      5 O         140.5138  142.1754  171.7096 O.2     1  UNL1       -0.2961
      6 C         140.6922  141.1353  169.1466 C.3     1  UNL1        0.0630
      7 C         141.6223  141.1546  167.9700 C.3     1  UNL1        0.0271
      8 C         141.0153  140.3148  166.8855 C.3     1  UNL1        0.0983
      9 N         141.6093  140.0584  165.5321 N.3     1  UNL1       -0.2697
     10 C         142.2464  138.7341  165.2315 C.3     1  UNL1        0.0722
     11 C         142.8404  138.4777  163.8782 C.3     1  UNL1        0.0187
     12 C         142.7972  139.5455  162.8256 C.3     1  UNL1        0.0183
     13 C         142.1601  140.8698  163.1263 C.3     1  UNL1        0.0670
     14 N         142.1170  141.9376  162.0737 N.3     1  UNL1       -0.3211
     15 C         141.5661  141.1263  164.4796 C.3     1  UNL1        0.0878
     16 H         142.5629  141.5945  161.2229 H       1  UNL1        0.1189
     17 H         142.6123  142.7643  162.4076 H       1  UNL1        0.1189
     18 O         138.7695  138.8871  166.6338 O.3     1  UNL1       -0.4778
     19 C         138.0805  139.5666  162.2391 C.ar    1  UNL1        0.0686
     20 C         137.7808  140.6586  163.2228 C.ar    1  UNL1        0.0134
     21 C         138.0105  140.4321  164.6878 C.ar    1  UNL1        0.0376
     22 C         138.5398  139.1136  165.1689 C.ar    1  UNL1        0.1385
     23 C         138.8395  138.0217  164.1851 C.ar    1  UNL1        0.0376
     24 C         138.6098  138.2482  162.7202 C.ar    1  UNL1        0.0134
     25 N         137.6211  140.0196  159.3093 N.1     1  UNL1       -0.1908
     26 C         137.8508  139.7931  160.7741 C.1     1  UNL1        0.1004
@<TRIPOS>BOND
     1    25    26    3
     2    26    19    1
     3    19    20   ar
     4    20    21   ar
     5    21    22   ar
     6    22    18    1
     7     1    18    1
     8     1     2    1
     9     2     3    1
    10     3     4    1
    11     4     5    2
    12     4     6    1
    13     6     7    1
    14     7     8    1
    15     8     9    1
    16     9    10    1
    17    10    11    1
    18    11    12    1
    19    12    13    1
    20    13    14    1
    21    13    15    1
    22    22    23   ar
    23    23    24   ar
    24    24    19   ar
    25     8     1    1
    26    15     9    1
    27     6     2    1
    28    14    16    1
    29    14    17    1
@<TRIPOS>MOLECULE
*****
 26 29 0 0 0
SMALL
GASTEIGER

@<TRIPOS>ATOM
      1 C         140.8897  142.1718  167.0746 C.3     1  UNL1        0.1810
      2 C         140.6511  142.6459  168.4775 C.3     1  UNL1        0.0557
      3 C         140.2770  143.5051  169.6489 C.3     1  UNL1        0.0685
      4 C         140.6561  142.3951  170.5840 C.2     1  UNL1        0.1505
      5 O         140.6596  142.2178  172.0735 O.2     1  UNL1       -0.2961
      6 C         141.0301  141.5359  169.4127 C.3     1  UNL1        0.0630
      7 C         141.5030  140.3759  168.5876 C.3     1  UNL1        0.0271
      8 C         141.4162  140.7689  167.1427 C.3     1  UNL1        0.0983
      9 N         141.7902  139.9097  165.9713 N.3     1  UNL1       -0.2697
     10 C         140.8181  138.8965  165.4437 C.3     1  UNL1        0.0722
     11 C         141.1922  138.0374  164.2724 C.3     1  UNL1        0.0187
     12 C         142.5383  138.1915  163.6287 C.3     1  UNL1        0.0183
     13 C         143.5103  139.2047  164.1564 C.3     1  UNL1        0.0670
     14 N         144.8564  139.3588  163.5127 N.3     1  UNL1       -0.3211
     15 C         143.1363  140.0639  165.3277 C.3     1  UNL1        0.0878
     16 H         144.9401  138.7007  162.7379 H       1  UNL1        0.1189
     17 H         145.5857  139.1693  164.2001 H       1  UNL1        0.1189
     18 O         140.6448  142.9619  165.8233 O.3     1  UNL1       -0.4778
     19 C         138.5853  141.0387  162.3148 C.ar    1  UNL1        0.0686
     20 C         137.8548  141.2052  163.6142 C.ar    1  UNL1        0.0134
     21 C         138.5413  141.8463  164.7837 C.ar    1  UNL1        0.0376
     22 C         139.9583  142.3208  164.6538 C.ar    1  UNL1        0.1385
     23 C         140.6888  142.1543  163.3543 C.ar    1  UNL1        0.0376
     24 C         140.0023  141.5133  162.1848 C.ar    1  UNL1        0.0134
     25 N         137.2123  139.7566  159.9757 N.1     1  UNL1       -0.1908
     26 C         137.8988  140.3976  161.1452 C.1     1  UNL1        0.1004
@<TRIPOS>BOND
     1    25    26    3
     2    26    19    1
     3    19    20   ar
     4    20    21   ar
     5    21    22   ar
     6    22    18    1
     7     1    18    1
     8     1     2    1
     9     2     3    1
    10     3     4    1
    11     4     5    2
    12     4     6    1
    13     6     7    1
    14     7     8    1
    15     8     9    1
    16     9    10    1
    17    10    11    1
    18    11    12    1
    19    12    13    1
    20    13    14    1
    21    13    15    1
    22    22    23   ar
    23    23    24   ar
    24    24    19   ar
    25     8     1    1
    26    15     9    1
    27     6     2    1
    28    14    16    1
    29    14    17    1
