@<TRIPOS>MOLECULE
*****
 29 31 0 0 0
SMALL
GASTEIGER

@<TRIPOS>ATOM
      1 C         139.0764  138.8379  165.4513 C.3     1  UNL1        0.0717
      2 C         138.0828  138.6012  166.5499 C.3     1  UNL1        0.0223
      3 C         138.2903  139.2280  167.8967 C.3     1  UNL1        0.0328
      4 C         139.4914  140.0915  168.1450 C.3     1  UNL1        0.1071
      5 O         138.8358  140.1634  169.4923 O.3     1  UNL1       -0.3827
      6 C         140.4850  140.3283  167.0466 C.3     1  UNL1        0.0328
      7 C         140.2775  139.7015  165.6997 C.3     1  UNL1        0.0223
      8 H         138.0214  139.6365  169.4841 H       1  UNL1        0.2107
      9 C         140.4648  140.9800  168.8613 C.ar    1  UNL1        0.0041
     10 C         141.7831  140.4315  169.3207 C.ar    1  UNL1        0.0012
     11 C         142.7566  141.3200  170.0370 C.ar    1  UNL1        0.0387
     12 C         142.4116  142.7570  170.2938 C.ar    1  UNL1        0.1610
     13 O         143.3851  143.6456  171.0101 O.3     1  UNL1       -0.5034
     14 C         141.0933  143.3055  169.8344 C.ar    1  UNL1        0.1733
     15 F         140.7483  144.7426  170.0913 F       1  UNL1       -0.2010
     16 C         140.1199  142.4170  169.1182 C.ar    1  UNL1        0.0307
     17 H         144.2086  143.3030  171.2970 H       1  UNL1        0.2923
     18 O         137.9990  140.4791  163.1830 O.2     1  UNL1       -0.2751
     19 C         138.3302  139.0317  162.9703 C.2     1  UNL1        0.2228
     20 N         138.8690  138.2111  164.1045 N.am    1  UNL1       -0.3060
     21 H         139.0864  137.2611  163.9649 H       1  UNL1        0.1494
     22 C         138.1227  138.4049  161.6234 C.3     1  UNL1        0.0897
     23 C         139.2766  138.2656  160.6752 C.3     1  UNL1        0.0359
     24 C         140.6504  138.6955  161.0973 C.ar    1  UNL1       -0.0217
     25 C         141.5626  137.7229  161.7840 C.ar    1  UNL1       -0.0043
     26 C         142.9363  138.1528  162.2061 C.ar    1  UNL1       -0.0003
     27 C         143.3977  139.5553  161.9413 C.ar    1  UNL1       -0.0000
     28 C         142.4854  140.5279  161.2545 C.ar    1  UNL1       -0.0003
     29 C         141.1117  140.0980  160.8325 C.ar    1  UNL1       -0.0043
@<TRIPOS>BOND
     1    18    19    2
     2    19    22    1
     3    22    23    1
     4    23    24    1
     5    24    25   ar
     6    25    26   ar
     7    26    27   ar
     8    27    28   ar
     9    28    29   ar
    10    19    20   am
    11     1    20    1
    12     1     2    1
    13     2     3    1
    14     3     4    1
    15     4     5    1
    16     4     9    1
    17     9    10   ar
    18    10    11   ar
    19    11    12   ar
    20    12    13    1
    21    12    14   ar
    22    14    15    1
    23    14    16   ar
    24     4     6    1
    25     6     7    1
    26    29    24   ar
    27     7     1    1
    28    16     9   ar
    29    20    21    1
    30     5     8    1
    31    13    17    1
@<TRIPOS>MOLECULE
*****
 29 31 0 0 0
SMALL
GASTEIGER

@<TRIPOS>ATOM
      1 C         139.1166  139.8001  164.7434 C.3     1  UNL1        0.0717
      2 C         138.3773  139.0534  165.8139 C.3     1  UNL1        0.0223
      3 C         138.6904  139.3079  167.2586 C.3     1  UNL1        0.0328
      4 C         139.7428  140.3090  167.6328 C.3     1  UNL1        0.1071
      5 O         139.3177  139.8553  168.9979 O.3     1  UNL1       -0.3827
      6 C         140.4822  141.0557  166.5624 C.3     1  UNL1        0.0328
      7 C         140.1691  140.8012  165.1176 C.3     1  UNL1        0.0223
      8 H         138.6202  139.1865  168.9137 H       1  UNL1        0.2107
      9 C         140.6476  141.1526  168.4811 C.ar    1  UNL1        0.0041
     10 C         141.9780  140.6170  168.9208 C.ar    1  UNL1        0.0012
     11 C         142.8829  141.4606  169.7692 C.ar    1  UNL1        0.0387
     12 C         142.4573  142.8397  170.1779 C.ar    1  UNL1        0.1610
     13 O         143.3621  143.6833  171.0262 O.3     1  UNL1       -0.5034
     14 C         141.1269  143.3752  169.7382 C.ar    1  UNL1        0.1733
     15 F         140.7014  144.7543  170.1469 F       1  UNL1       -0.2010
     16 C         140.2222  142.5316  168.8899 C.ar    1  UNL1        0.0307
     17 H         144.1932  143.3488  171.3009 H       1  UNL1        0.2923
     18 O         140.1908  137.3506  163.3847 O.2     1  UNL1       -0.2751
     19 C         139.3406  138.3209  162.6194 C.2     1  UNL1        0.2228
     20 N         138.8035  139.5456  163.2987 N.am    1  UNL1       -0.3060
     21 H         138.2455  140.1824  162.7964 H       1  UNL1        0.1494
     22 C         139.0275  138.0663  161.1746 C.3     1  UNL1        0.0897
     23 C         140.0345  138.4095  160.1172 C.3     1  UNL1        0.0359
     24 C         141.4141  138.8487  160.5096 C.ar    1  UNL1       -0.0217
     25 C         141.6932  140.2988  160.7723 C.ar    1  UNL1       -0.0043
     26 C         143.0728  140.7379  161.1647 C.ar    1  UNL1       -0.0003
     27 C         144.1732  139.7269  161.2944 C.ar    1  UNL1       -0.0000
     28 C         143.8940  138.2767  161.0318 C.ar    1  UNL1       -0.0003
     29 C         142.5145  137.8376  160.6394 C.ar    1  UNL1       -0.0043
@<TRIPOS>BOND
     1    18    19    2
     2    19    22    1
     3    22    23    1
     4    23    24    1
     5    24    25   ar
     6    25    26   ar
     7    26    27   ar
     8    27    28   ar
     9    28    29   ar
    10    19    20   am
    11     1    20    1
    12     1     2    1
    13     2     3    1
    14     3     4    1
    15     4     5    1
    16     4     9    1
    17     9    10   ar
    18    10    11   ar
    19    11    12   ar
    20    12    13    1
    21    12    14   ar
    22    14    15    1
    23    14    16   ar
    24     4     6    1
    25     6     7    1
    26    29    24   ar
    27     7     1    1
    28    16     9   ar
    29    20    21    1
    30     5     8    1
    31    13    17    1
@<TRIPOS>MOLECULE
*****
 29 31 0 0 0
SMALL
GASTEIGER

@<TRIPOS>ATOM
      1 C         138.7527  139.7542  165.1904 C.3     1  UNL1        0.0717
      2 C         138.1163  139.0181  166.3320 C.3     1  UNL1        0.0223
      3 C         138.5518  139.2968  167.7400 C.3     1  UNL1        0.0328
      4 C         139.6238  140.3116  168.0066 C.3     1  UNL1        0.1071
      5 O         139.3234  139.8753  169.4099 O.3     1  UNL1       -0.3827
      6 C         140.2602  141.0477  166.8651 C.3     1  UNL1        0.0328
      7 C         139.8247  140.7690  165.4570 C.3     1  UNL1        0.0223
      8 H         138.6272  139.1999  169.3965 H       1  UNL1        0.2107
      9 C         140.5914  141.1748  168.7605 C.ar    1  UNL1        0.0041
     10 C         141.9320  140.6301  169.1557 C.ar    1  UNL1        0.0012
     11 C         142.8997  141.4934  169.9097 C.ar    1  UNL1        0.0387
     12 C         142.5268  142.9013  170.2683 C.ar    1  UNL1        0.1610
     13 O         143.4945  143.7647  171.0222 O.3     1  UNL1       -0.5034
     14 C         141.1863  143.4460  169.8730 C.ar    1  UNL1        0.1733
     15 F         140.8134  144.8540  170.2317 F       1  UNL1       -0.2010
     16 C         140.2186  142.5828  169.1191 C.ar    1  UNL1        0.0307
     17 H         144.3319  143.4244  171.2691 H       1  UNL1        0.2923
     18 O         139.8951  137.4130  163.7026 O.2     1  UNL1       -0.2751
     19 C         138.8884  138.3049  163.0385 C.2     1  UNL1        0.2228
     20 N         138.3172  139.4755  163.7824 N.am    1  UNL1       -0.3060
     21 H         137.6565  140.0609  163.3465 H       1  UNL1        0.1494
     22 C         138.4528  138.0261  161.6304 C.3     1  UNL1        0.0897
     23 C         139.1782  138.6613  160.4813 C.3     1  UNL1        0.0359
     24 C         139.4141  140.1427  160.4700 C.ar    1  UNL1       -0.0217
     25 C         138.3330  141.0707  160.0011 C.ar    1  UNL1       -0.0043
     26 C         138.5689  142.5519  159.9898 C.ar    1  UNL1       -0.0003
     27 C         139.8859  143.1052  160.4474 C.ar    1  UNL1       -0.0000
     28 C         140.9670  142.1771  160.9164 C.ar    1  UNL1       -0.0003
     29 C         140.7311  140.6959  160.9277 C.ar    1  UNL1       -0.0043
@<TRIPOS>BOND
     1    18    19    2
     2    19    22    1
     3    22    23    1
     4    23    24    1
     5    24    25   ar
     6    25    26   ar
     7    26    27   ar
     8    27    28   ar
     9    28    29   ar
    10    19    20   am
    11     1    20    1
    12     1     2    1
    13     2     3    1
    14     3     4    1
    15     4     5    1
    16     4     9    1
    17     9    10   ar
    18    10    11   ar
    19    11    12   ar
    20    12    13    1
    21    12    14   ar
    22    14    15    1
    23    14    16   ar
    24     4     6    1
    25     6     7    1
    26    29    24   ar
    27     7     1    1
    28    16     9   ar
    29    20    21    1
    30     5     8    1
    31    13    17    1
@<TRIPOS>MOLECULE
*****
 29 31 0 0 0
SMALL
GASTEIGER

@<TRIPOS>ATOM
      1 C         141.8706  139.4033  164.2017 C.3     1  UNL1        0.0717
      2 C         142.9238  138.5088  164.7855 C.3     1  UNL1        0.0223
      3 C         143.1724  138.5091  166.2648 C.3     1  UNL1        0.0328
      4 C         142.3678  139.4039  167.1603 C.3     1  UNL1        0.1071
      5 O         143.2477  138.7401  168.1777 O.3     1  UNL1       -0.3827
      6 C         141.3146  140.2983  166.5766 C.3     1  UNL1        0.0328
      7 C         141.0660  140.2981  165.0973 C.3     1  UNL1        0.0223
      8 H         143.8408  138.1144  167.7332 H       1  UNL1        0.2107
      9 C         141.8688  140.0681  168.4091 C.ar    1  UNL1        0.0041
     10 C         142.8428  140.6599  169.3844 C.ar    1  UNL1        0.0012
     11 C         142.3438  141.3242  170.6334 C.ar    1  UNL1        0.0387
     12 C         140.8707  141.3967  170.9069 C.ar    1  UNL1        0.1610
     13 O         140.3716  142.0609  172.1559 O.3     1  UNL1       -0.5034
     14 C         139.8967  140.8049  169.9317 C.ar    1  UNL1        0.1733
     15 F         138.4237  140.8774  170.2054 F       1  UNL1       -0.2010
     16 C         140.3958  140.1407  168.6828 C.ar    1  UNL1        0.0307
     17 H         140.9801  142.4306  172.7651 H       1  UNL1        0.2923
     18 O         140.2787  137.1907  162.9488 O.2     1  UNL1       -0.2751
     19 C         140.8261  138.2967  162.0960 C.2     1  UNL1        0.2228
     20 N         141.6221  139.4030  162.7225 N.am    1  UNL1       -0.3060
     21 H         141.9814  140.1288  162.1628 H       1  UNL1        0.1494
     22 C         140.5775  138.2963  160.6167 C.3     1  UNL1        0.0897
     23 C         139.4468  139.0998  160.0460 C.3     1  UNL1        0.0359
     24 C         138.9131  140.2830  160.7980 C.ar    1  UNL1       -0.0217
     25 C         137.9291  140.0819  161.9121 C.ar    1  UNL1       -0.0043
     26 C         137.3954  141.2650  162.6640 C.ar    1  UNL1       -0.0003
     27 C         137.8458  142.6492  162.3018 C.ar    1  UNL1       -0.0000
     28 C         138.8298  142.8503  161.1877 C.ar    1  UNL1       -0.0003
     29 C         139.3634  141.6672  160.4358 C.ar    1  UNL1       -0.0043
@<TRIPOS>BOND
     1    18    19    2
     2    19    22    1
     3    22    23    1
     4    23    24    1
     5    24    25   ar
     6    25    26   ar
     7    26    27   ar
     8    27    28   ar
     9    28    29   ar
    10    19    20   am
    11     1    20    1
    12     1     2    1
    13     2     3    1
    14     3     4    1
    15     4     5    1
    16     4     9    1
    17     9    10   ar
    18    10    11   ar
    19    11    12   ar
    20    12    13    1
    21    12    14   ar
    22    14    15    1
    23    14    16   ar
    24     4     6    1
    25     6     7    1
    26    29    24   ar
    27     7     1    1
    28    16     9   ar
    29    20    21    1
    30     5     8    1
    31    13    17    1
@<TRIPOS>MOLECULE
*****
 29 31 0 0 0
SMALL
GASTEIGER

@<TRIPOS>ATOM
      1 C         142.9089  140.3469  164.3046 C.3     1  UNL1        0.0717
      2 C         143.5085  139.0881  164.8581 C.3     1  UNL1        0.0223
      3 C         143.4202  138.7982  166.3271 C.3     1  UNL1        0.0328
      4 C         142.7324  139.7670  167.2428 C.3     1  UNL1        0.1071
      5 O         143.1426  138.7183  168.2337 O.3     1  UNL1       -0.3827
      6 C         142.1329  141.0257  166.6894 C.3     1  UNL1        0.0328
      7 C         142.2211  141.3156  165.2203 C.3     1  UNL1        0.0223
      8 H         143.6127  138.0052  167.7739 H       1  UNL1        0.2107
      9 C         142.1870  140.3715  168.5025 C.ar    1  UNL1        0.0041
     10 C         140.9501  139.8033  169.1327 C.ar    1  UNL1        0.0012
     11 C         140.4047  140.4079  170.3926 C.ar    1  UNL1        0.0387
     12 C         141.0962  141.5806  171.0222 C.ar    1  UNL1        0.1610
     13 O         140.5508  142.1852  172.2820 O.3     1  UNL1       -0.5034
     14 C         142.3332  142.1488  170.3920 C.ar    1  UNL1        0.1733
     15 F         143.0247  143.3216  171.0216 F       1  UNL1       -0.2010
     16 C         142.8785  141.5442  169.1322 C.ar    1  UNL1        0.0307
     17 H         139.7782  141.8302  172.6757 H       1  UNL1        0.2923
     18 O         145.3386  141.7064  163.1875 O.2     1  UNL1       -0.2751
     19 C         144.2120  141.3166  162.2770 C.2     1  UNL1        0.2228
     20 N         142.9972  140.6368  162.8356 N.am    1  UNL1       -0.3060
     21 H         142.2578  140.3809  162.2380 H       1  UNL1        0.1494
     22 C         144.3003  141.6065  160.8079 C.3     1  UNL1        0.0897
     23 C         143.7122  142.8713  160.2564 C.3     1  UNL1        0.0359
     24 C         142.6561  143.6061  161.0277 C.ar    1  UNL1       -0.0217
     25 C         143.0260  144.3715  162.2635 C.ar    1  UNL1       -0.0043
     26 C         141.9699  145.1062  163.0348 C.ar    1  UNL1       -0.0003
     27 C         140.5440  145.0754  162.5703 C.ar    1  UNL1       -0.0000
     28 C         140.1741  144.3100  161.3345 C.ar    1  UNL1       -0.0003
     29 C         141.2302  143.5753  160.5632 C.ar    1  UNL1       -0.0043
@<TRIPOS>BOND
     1    18    19    2
     2    19    22    1
     3    22    23    1
     4    23    24    1
     5    24    25   ar
     6    25    26   ar
     7    26    27   ar
     8    27    28   ar
     9    28    29   ar
    10    19    20   am
    11     1    20    1
    12     1     2    1
    13     2     3    1
    14     3     4    1
    15     4     5    1
    16     4     9    1
    17     9    10   ar
    18    10    11   ar
    19    11    12   ar
    20    12    13    1
    21    12    14   ar
    22    14    15    1
    23    14    16   ar
    24     4     6    1
    25     6     7    1
    26    29    24   ar
    27     7     1    1
    28    16     9   ar
    29    20    21    1
    30     5     8    1
    31    13    17    1
@<TRIPOS>MOLECULE
*****
 29 31 0 0 0
SMALL
GASTEIGER

@<TRIPOS>ATOM
      1 C         139.2533  140.2781  164.4548 C.3     1  UNL1        0.0717
      2 C         138.3256  139.3311  165.1568 C.3     1  UNL1        0.0223
      3 C         138.3626  139.2152  166.6518 C.3     1  UNL1        0.0328
      4 C         139.3272  140.0462  167.4449 C.3     1  UNL1        0.1071
      5 O         138.6532  139.2976  168.5564 O.3     1  UNL1       -0.3827
      6 C         140.2549  140.9931  166.7430 C.3     1  UNL1        0.0328
      7 C         140.2179  141.1091  165.2479 C.3     1  UNL1        0.0223
      8 H         137.9832  138.7022  168.1854 H       1  UNL1        0.2107
      9 C         140.0578  140.6172  168.6239 C.ar    1  UNL1        0.0041
     10 C         139.2886  141.1663  169.7888 C.ar    1  UNL1        0.0012
     11 C         140.0191  141.7373  170.9679 C.ar    1  UNL1        0.0387
     12 C         141.5189  141.7592  170.9822 C.ar    1  UNL1        0.1610
     13 O         142.2495  142.3302  172.1613 O.3     1  UNL1       -0.5034
     14 C         142.2881  141.2101  169.8173 C.ar    1  UNL1        0.1733
     15 F         143.7879  141.2320  169.8316 F       1  UNL1       -0.2010
     16 C         141.5575  140.6391  168.6383 C.ar    1  UNL1        0.0307
     17 H         141.7690  142.6732  172.8889 H       1  UNL1        0.2923
     18 O         137.0955  141.8852  163.1279 O.2     1  UNL1       -0.2751
     19 C         138.1374  141.1976  162.2963 C.2     1  UNL1        0.2228
     20 N         139.2163  140.3940  162.9598 N.am    1  UNL1       -0.3060
     21 H         139.9002  139.9427  162.4140 H       1  UNL1        0.1494
     22 C         138.1004  141.3135  160.8012 C.3     1  UNL1        0.0897
     23 C         139.0538  142.2324  160.0964 C.3     1  UNL1        0.0359
     24 C         139.9929  143.0914  160.8903 C.ar    1  UNL1       -0.0217
     25 C         141.4544  142.7577  160.9396 C.ar    1  UNL1       -0.0043
     26 C         142.3934  143.6167  161.7335 C.ar    1  UNL1       -0.0003
     27 C         141.8709  144.8094  162.4781 C.ar    1  UNL1       -0.0000
     28 C         140.4094  145.1431  162.4288 C.ar    1  UNL1       -0.0003
     29 C         139.4703  144.2841  161.6349 C.ar    1  UNL1       -0.0043
@<TRIPOS>BOND
     1    18    19    2
     2    19    22    1
     3    22    23    1
     4    23    24    1
     5    24    25   ar
     6    25    26   ar
     7    26    27   ar
     8    27    28   ar
     9    28    29   ar
    10    19    20   am
    11     1    20    1
    12     1     2    1
    13     2     3    1
    14     3     4    1
    15     4     5    1
    16     4     9    1
    17     9    10   ar
    18    10    11   ar
    19    11    12   ar
    20    12    13    1
    21    12    14   ar
    22    14    15    1
    23    14    16   ar
    24     4     6    1
    25     6     7    1
    26    29    24   ar
    27     7     1    1
    28    16     9   ar
    29    20    21    1
    30     5     8    1
    31    13    17    1
@<TRIPOS>MOLECULE
*****
 29 31 0 0 0
SMALL
GASTEIGER

@<TRIPOS>ATOM
      1 C         139.4407  140.6883  164.1405 C.3     1  UNL1        0.0717
      2 C         138.5513  139.6549  164.7660 C.3     1  UNL1        0.0223
      3 C         138.5628  139.4562  166.2526 C.3     1  UNL1        0.0328
      4 C         139.4637  140.2907  167.1140 C.3     1  UNL1        0.1071
      5 O         138.8081  139.4452  168.1653 O.3     1  UNL1       -0.3827
      6 C         140.3531  141.3241  166.4886 C.3     1  UNL1        0.0328
      7 C         140.3416  141.5229  165.0018 C.3     1  UNL1        0.0223
      8 H         138.1795  138.8372  167.7456 H       1  UNL1        0.2107
      9 C         140.1369  140.8317  168.3404 C.ar    1  UNL1        0.0041
     10 C         140.7372  139.8912  169.3429 C.ar    1  UNL1        0.0012
     11 C         141.4105  140.4321  170.5695 C.ar    1  UNL1        0.0387
     12 C         141.4834  141.9135  170.7933 C.ar    1  UNL1        0.1610
     13 O         142.1566  142.4545  172.0198 O.3     1  UNL1       -0.5034
     14 C         140.8830  142.8540  169.7907 C.ar    1  UNL1        0.1733
     15 F         140.9560  144.3354  170.0146 F       1  UNL1       -0.2010
     16 C         140.2098  142.3130  168.5643 C.ar    1  UNL1        0.0307
     17 H         142.5316  141.8670  172.6461 H       1  UNL1        0.2923
     18 O         137.2719  142.3197  162.8621 O.2     1  UNL1       -0.2751
     19 C         138.3448  141.7028  162.0146 C.2     1  UNL1        0.2228
     20 N         139.4292  140.8871  162.6538 N.am    1  UNL1       -0.3060
     21 H         140.1334  140.4822  162.0976 H       1  UNL1        0.1494
     22 C         138.3332  141.9016  160.5278 C.3     1  UNL1        0.0897
     23 C         139.6159  142.1663  159.7966 C.3     1  UNL1        0.0359
     24 C         139.6911  143.2785  158.7928 C.ar    1  UNL1       -0.0217
     25 C         140.2750  144.6036  159.1840 C.ar    1  UNL1       -0.0043
     26 C         140.3503  145.7157  158.1802 C.ar    1  UNL1       -0.0003
     27 C         139.8417  145.5026  156.7852 C.ar    1  UNL1       -0.0000
     28 C         139.2578  144.1775  156.3941 C.ar    1  UNL1       -0.0003
     29 C         139.1825  143.0654  157.3978 C.ar    1  UNL1       -0.0043
@<TRIPOS>BOND
     1    18    19    2
     2    19    22    1
     3    22    23    1
     4    23    24    1
     5    24    25   ar
     6    25    26   ar
     7    26    27   ar
     8    27    28   ar
     9    28    29   ar
    10    19    20   am
    11     1    20    1
    12     1     2    1
    13     2     3    1
    14     3     4    1
    15     4     5    1
    16     4     9    1
    17     9    10   ar
    18    10    11   ar
    19    11    12   ar
    20    12    13    1
    21    12    14   ar
    22    14    15    1
    23    14    16   ar
    24     4     6    1
    25     6     7    1
    26    29    24   ar
    27     7     1    1
    28    16     9   ar
    29    20    21    1
    30     5     8    1
    31    13    17    1
@<TRIPOS>MOLECULE
*****
 29 31 0 0 0
SMALL
GASTEIGER

@<TRIPOS>ATOM
      1 C         139.3010  139.6354  164.4848 C.3     1  UNL1        0.0717
      2 C         138.3191  138.8863  165.3362 C.3     1  UNL1        0.0223
      3 C         138.3628  139.0240  166.8292 C.3     1  UNL1        0.0328
      4 C         139.3883  139.9108  167.4709 C.3     1  UNL1        0.1071
      5 O         138.6768  139.4091  168.6924 O.3     1  UNL1       -0.3827
      6 C         140.3702  140.6600  166.6196 C.3     1  UNL1        0.0328
      7 C         140.3265  140.5223  165.1266 C.3     1  UNL1        0.0223
      8 H         137.9650  138.8059  168.4271 H       1  UNL1        0.2107
      9 C         140.1667  140.6234  168.5368 C.ar    1  UNL1        0.0041
     10 C         141.0312  139.8434  169.4824 C.ar    1  UNL1        0.0012
     11 C         141.8097  140.5560  170.5484 C.ar    1  UNL1        0.0387
     12 C         141.7236  142.0486  170.6687 C.ar    1  UNL1        0.1610
     13 O         142.5020  142.7613  171.7347 O.3     1  UNL1       -0.5034
     14 C         140.8591  142.8287  169.7231 C.ar    1  UNL1        0.1733
     15 F         140.7730  144.3214  169.8435 F       1  UNL1       -0.2010
     16 C         140.0807  142.1161  168.6572 C.ar    1  UNL1        0.0307
     17 H         143.0421  142.2741  172.3254 H       1  UNL1        0.2923
     18 O         140.3028  137.1268  163.1800 O.2     1  UNL1       -0.2751
     19 C         139.7582  138.2434  162.3394 C.2     1  UNL1        0.2228
     20 N         139.2573  139.4977  162.9918 N.am    1  UNL1       -0.3060
     21 H         138.8999  140.2306  162.4401 H       1  UNL1        0.1494
     22 C         139.7146  138.1057  160.8463 C.3     1  UNL1        0.0897
     23 C         139.9451  139.3050  159.9754 C.3     1  UNL1        0.0359
     24 C         139.5558  139.2663  158.5273 C.ar    1  UNL1       -0.0217
     25 C         140.0220  138.1385  157.6552 C.ar    1  UNL1       -0.0043
     26 C         139.6326  138.0999  156.2072 C.ar    1  UNL1       -0.0003
     27 C         138.7771  139.1891  155.6312 C.ar    1  UNL1       -0.0000
     28 C         138.3109  140.3169  156.5034 C.ar    1  UNL1       -0.0003
     29 C         138.7003  140.3555  157.9514 C.ar    1  UNL1       -0.0043
@<TRIPOS>BOND
     1    18    19    2
     2    19    22    1
     3    22    23    1
     4    23    24    1
     5    24    25   ar
     6    25    26   ar
     7    26    27   ar
     8    27    28   ar
     9    28    29   ar
    10    19    20   am
    11     1    20    1
    12     1     2    1
    13     2     3    1
    14     3     4    1
    15     4     5    1
    16     4     9    1
    17     9    10   ar
    18    10    11   ar
    19    11    12   ar
    20    12    13    1
    21    12    14   ar
    22    14    15    1
    23    14    16   ar
    24     4     6    1
    25     6     7    1
    26    29    24   ar
    27     7     1    1
    28    16     9   ar
    29    20    21    1
    30     5     8    1
    31    13    17    1
@<TRIPOS>MOLECULE
*****
 29 31 0 0 0
SMALL
GASTEIGER

@<TRIPOS>ATOM
      1 C         141.6472  142.3430  163.8578 C.3     1  UNL1        0.0717
      2 C         142.9674  142.9392  164.2477 C.3     1  UNL1        0.0223
      3 C         143.4136  142.9019  165.6792 C.3     1  UNL1        0.0328
      4 C         142.5398  142.2685  166.7210 C.3     1  UNL1        0.1071
      5 O         143.6959  142.6963  167.5757 O.3     1  UNL1       -0.3827
      6 C         141.2197  141.6724  166.3312 C.3     1  UNL1        0.0328
      7 C         140.7734  141.7096  164.8995 C.3     1  UNL1        0.0223
      8 H         144.3618  143.1346  167.0231 H       1  UNL1        0.2107
      9 C         142.0675  141.7837  168.0595 C.ar    1  UNL1        0.0041
     10 C         141.2949  142.7016  168.9598 C.ar    1  UNL1        0.0012
     11 C         140.8225  142.2168  170.2985 C.ar    1  UNL1        0.0387
     12 C         141.1228  140.8141  170.7368 C.ar    1  UNL1        0.1610
     13 O         140.6505  140.3292  172.0754 O.3     1  UNL1       -0.5034
     14 C         141.8954  139.8962  169.8365 C.ar    1  UNL1        0.1733
     15 F         142.1956  138.4934  170.2748 F       1  UNL1       -0.2010
     16 C         142.3677  140.3810  168.4979 C.ar    1  UNL1        0.0307
     17 H         140.1678  140.9026  172.6378 H       1  UNL1        0.2923
     18 O         139.5477  144.3030  162.9917 O.2     1  UNL1       -0.2751
     19 C         140.1512  143.3603  161.9932 C.2     1  UNL1        0.2228
     20 N         141.2010  142.3803  162.4262 N.am    1  UNL1       -0.3060
     21 H         141.5971  141.7615  161.7709 H       1  UNL1        0.1494
     22 C         139.7049  143.3976  160.5615 C.3     1  UNL1        0.0897
     23 C         138.6455  142.4505  160.0813 C.3     1  UNL1        0.0359
     24 C         138.6936  141.0058  160.4818 C.ar    1  UNL1       -0.0217
     25 C         139.6432  140.0686  159.7964 C.ar    1  UNL1       -0.0043
     26 C         139.6912  138.6239  160.1970 C.ar    1  UNL1       -0.0003
     27 C         138.7896  138.1164  161.2830 C.ar    1  UNL1       -0.0000
     28 C         137.8399  139.0535  161.9684 C.ar    1  UNL1       -0.0003
     29 C         137.7919  140.4982  161.5679 C.ar    1  UNL1       -0.0043
@<TRIPOS>BOND
     1    18    19    2
     2    19    22    1
     3    22    23    1
     4    23    24    1
     5    24    25   ar
     6    25    26   ar
     7    26    27   ar
     8    27    28   ar
     9    28    29   ar
    10    19    20   am
    11     1    20    1
    12     1     2    1
    13     2     3    1
    14     3     4    1
    15     4     5    1
    16     4     9    1
    17     9    10   ar
    18    10    11   ar
    19    11    12   ar
    20    12    13    1
    21    12    14   ar
    22    14    15    1
    23    14    16   ar
    24     4     6    1
    25     6     7    1
    26    29    24   ar
    27     7     1    1
    28    16     9   ar
    29    20    21    1
    30     5     8    1
    31    13    17    1
