@<TRIPOS>MOLECULE
*****
 37 41 0 0 0
SMALL
GASTEIGER

@<TRIPOS>ATOM
      1 C         141.1942  139.3628  164.0719 C.ar    1  UNL1        0.0502
      2 C         140.4788  138.1523  163.5498 C.ar    1  UNL1        0.0143
      3 C         140.5232  137.8281  162.0859 C.ar    1  UNL1       -0.0030
      4 C         141.2831  138.7146  161.1442 C.ar    1  UNL1       -0.0223
      5 C         141.9985  139.9251  161.6663 C.ar    1  UNL1       -0.0034
      6 C         141.9541  140.2492  163.1302 C.ar    1  UNL1        0.0089
      7 C         141.3275  138.3904  159.6803 C.3     1  UNL1        0.0251
      8 C         140.0619  138.3819  158.8753 C.3     1  UNL1        0.0217
      9 C         140.1063  138.0577  157.4113 C.3     1  UNL1        0.0728
     10 N         141.4163  137.7420  156.7525 N.3     1  UNL1       -0.2677
     11 C         142.6820  137.7505  157.5576 C.3     1  UNL1        0.0728
     12 C         142.6375  138.0747  159.0215 C.3     1  UNL1        0.0217
     13 C         141.4608  137.4179  155.2887 C.3     1  UNL1        0.1186
     14 C         141.6318  135.9968  154.8401 C.ar    1  UNL1        0.0752
     15 C         141.6788  135.6729  153.3762 C.ar    1  UNL1        0.0161
     16 C         141.8498  134.2517  152.9277 C.ar    1  UNL1        0.0028
     17 C         141.9738  133.1545  153.9430 C.ar    1  UNL1        0.0207
     18 C         141.9268  133.4785  155.4068 C.ar    1  UNL1        0.0985
     19 N         141.7558  134.8995  155.8554 N.ar    1  UNL1       -0.2468
     20 C         142.6695  141.4598  163.6524 C.2     1  UNL1       -0.0253
     21 C         141.9384  142.7625  163.7885 C.2     1  UNL1       -0.0303
     22 C         142.6538  143.9731  164.3107 C.3     1  UNL1        0.0257
     23 C         144.1004  143.8810  164.6968 C.3     1  UNL1        0.0050
     24 C         144.8315  142.5783  164.5607 C.3     1  UNL1        0.0050
     25 C         144.1160  141.3677  164.0385 C.3     1  UNL1        0.0261
     26 C         142.2279  139.1826  166.4487 C.2     1  UNL1        0.2837
     27 O         143.3504  138.3541  165.8977 O.2     1  UNL1       -0.2665
     28 N         141.1498  139.6870  165.5359 N.am    1  UNL1       -0.2779
     29 H         140.4131  140.2308  165.8975 H       1  UNL1        0.1553
     30 C         141.6099  140.5432  170.0309 C.ar    1  UNL1        0.1469
     31 C         142.6206  139.4679  170.2997 C.ar    1  UNL1        0.1282
     32 N         142.9751  138.8273  168.9905 N.ar    1  UNL1       -0.2205
     33 C         142.1835  139.5067  167.9126 C.ar    1  UNL1        0.1958
     34 N         141.3398  140.5672  168.5556 N.ar    1  UNL1       -0.3257
     35 H         140.7180  141.1727  168.0909 H       1  UNL1        0.1682
     36 N         140.3500  142.3319  172.0836 N.1     1  UNL1       -0.1893
     37 C         140.9799  141.4376  171.0572 C.1     1  UNL1        0.1194
@<TRIPOS>BOND
     1    36    37    3
     2    37    30    1
     3    30    31   ar
     4    31    32   ar
     5    32    33   ar
     6    33    26    1
     7    26    27    2
     8    26    28   am
     9    28     1    1
    10     1     2   ar
    11     2     3   ar
    12     3     4   ar
    13     4     7    1
    14     7     8    1
    15     8     9    1
    16     9    10    1
    17    10    13    1
    18    13    14    1
    19    14    15   ar
    20    15    16   ar
    21    16    17   ar
    22    17    18   ar
    23    18    19   ar
    24    10    11    1
    25    11    12    1
    26     4     5   ar
    27     5     6   ar
    28     6    20    1
    29    20    21    2
    30    21    22    1
    31    22    23    1
    32    23    24    1
    33    24    25    1
    34    33    34   ar
    35    34    30   ar
    36     6     1   ar
    37    25    20    1
    38    12     7    1
    39    19    14   ar
    40    28    29    1
    41    34    35    1
@<TRIPOS>MOLECULE
*****
 37 41 0 0 0
SMALL
GASTEIGER

@<TRIPOS>ATOM
      1 C         140.9831  139.5613  163.8327 C.ar    1  UNL1        0.0502
      2 C         141.6045  138.2602  163.4194 C.ar    1  UNL1        0.0143
      3 C         141.6811  137.8936  161.9670 C.ar    1  UNL1       -0.0030
      4 C         141.1363  138.8281  160.9278 C.ar    1  UNL1       -0.0223
      5 C         140.5149  140.1292  161.3411 C.ar    1  UNL1       -0.0034
      6 C         140.4383  140.4958  162.7936 C.ar    1  UNL1        0.0089
      7 C         141.2129  138.4614  159.4753 C.3     1  UNL1        0.0251
      8 C         142.5372  138.1279  158.8548 C.3     1  UNL1        0.0217
      9 C         142.6138  137.7613  157.4023 C.3     1  UNL1        0.0728
     10 N         141.3661  137.7281  156.5703 N.3     1  UNL1       -0.2677
     11 C         140.0418  138.0617  157.1909 C.3     1  UNL1        0.0728
     12 C         139.9652  138.4283  158.6433 C.3     1  UNL1        0.0217
     13 C         141.4427  137.3615  155.1179 C.3     1  UNL1        0.1186
     14 C         141.5721  135.9229  154.7133 C.ar    1  UNL1        0.0752
     15 C         141.7476  135.5632  153.2677 C.ar    1  UNL1        0.0161
     16 C         141.8770  134.1245  152.8632 C.ar    1  UNL1        0.0028
     17 C         141.8309  133.0457  153.9043 C.ar    1  UNL1        0.0207
     18 C         141.6554  133.4054  155.3499 C.ar    1  UNL1        0.0985
     19 N         141.5260  134.8440  155.7544 N.ar    1  UNL1       -0.2468
     20 C         139.8169  141.7970  163.2070 C.2     1  UNL1       -0.0253
     21 C         140.6674  143.0253  163.3408 C.2     1  UNL1       -0.0303
     22 C         140.0461  144.3265  163.7541 C.3     1  UNL1        0.0257
     23 C         138.5741  144.3994  164.0337 C.3     1  UNL1        0.0050
     24 C         137.7236  143.1711  163.8999 C.3     1  UNL1        0.0050
     25 C         138.3450  141.8699  163.4865 C.3     1  UNL1        0.0261
     26 C         139.7089  139.5314  166.0967 C.2     1  UNL1        0.2837
     27 O         138.5879  138.7682  165.4556 O.2     1  UNL1       -0.2665
     28 N         140.9065  139.9280  165.2853 N.am    1  UNL1       -0.2779
     29 H         141.6423  140.4289  165.7060 H       1  UNL1        0.1553
     30 C         140.1600  140.8388  169.7233 C.ar    1  UNL1        0.1469
     31 C         138.8685  140.0857  169.8453 C.ar    1  UNL1        0.1282
     32 N         138.5423  139.5043  168.5016 N.ar    1  UNL1       -0.2205
     33 C         139.6322  139.8981  167.5492 C.ar    1  UNL1        0.1958
     34 N         140.6320  140.7228  168.3042 N.ar    1  UNL1       -0.3257
     35 H         141.4538  141.1185  167.9335 H       1  UNL1        0.1682
     36 N         141.5543  142.3173  171.9301 N.1     1  UNL1       -0.1893
     37 C         140.8572  141.5780  170.8267 C.1     1  UNL1        0.1194
@<TRIPOS>BOND
     1    36    37    3
     2    37    30    1
     3    30    31   ar
     4    31    32   ar
     5    32    33   ar
     6    33    26    1
     7    26    27    2
     8    26    28   am
     9    28     1    1
    10     1     2   ar
    11     2     3   ar
    12     3     4   ar
    13     4     7    1
    14     7     8    1
    15     8     9    1
    16     9    10    1
    17    10    13    1
    18    13    14    1
    19    14    15   ar
    20    15    16   ar
    21    16    17   ar
    22    17    18   ar
    23    18    19   ar
    24    10    11    1
    25    11    12    1
    26     4     5   ar
    27     5     6   ar
    28     6    20    1
    29    20    21    2
    30    21    22    1
    31    22    23    1
    32    23    24    1
    33    24    25    1
    34    33    34   ar
    35    34    30   ar
    36     6     1   ar
    37    25    20    1
    38    12     7    1
    39    19    14   ar
    40    28    29    1
    41    34    35    1
@<TRIPOS>MOLECULE
*****
 37 41 0 0 0
SMALL
GASTEIGER

@<TRIPOS>ATOM
      1 C         141.0933  139.2519  164.1094 C.ar    1  UNL1        0.0502
      2 C         141.5477  137.9202  163.5898 C.ar    1  UNL1        0.0143
      3 C         141.5802  137.6631  162.1124 C.ar    1  UNL1       -0.0030
      4 C         141.1583  138.7377  161.1546 C.ar    1  UNL1       -0.0223
      5 C         140.7039  140.0694  161.6742 C.ar    1  UNL1       -0.0034
      6 C         140.6714  140.3265  163.1516 C.ar    1  UNL1        0.0089
      7 C         141.1908  138.4805  159.6771 C.3     1  UNL1        0.0251
      8 C         142.5048  138.3068  158.9748 C.3     1  UNL1        0.0217
      9 C         142.5374  138.0496  157.4973 C.3     1  UNL1        0.0728
     10 N         141.2559  137.9661  156.7222 N.3     1  UNL1       -0.2677
     11 C         139.9418  138.1397  157.4246 C.3     1  UNL1        0.0728
     12 C         139.9094  138.3969  158.9020 C.3     1  UNL1        0.0217
     13 C         141.2884  137.7089  155.2448 C.3     1  UNL1        0.1186
     14 C         141.4607  136.3104  154.7306 C.ar    1  UNL1        0.0752
     15 C         141.6340  136.0678  153.2606 C.ar    1  UNL1        0.0161
     16 C         141.8063  134.6692  152.7464 C.ar    1  UNL1        0.0028
     17 C         141.8054  133.5133  153.7023 C.ar    1  UNL1        0.0207
     18 C         141.6321  133.7559  155.1724 C.ar    1  UNL1        0.0985
     19 N         141.4597  135.1544  155.6866 N.ar    1  UNL1       -0.2468
     20 C         140.2169  141.6582  163.6713 C.2     1  UNL1       -0.0253
     21 C         141.2049  142.7741  163.8404 C.2     1  UNL1       -0.0303
     22 C         140.7506  144.1058  164.3601 C.3     1  UNL1        0.0257
     23 C         139.3081  144.3217  164.7107 C.3     1  UNL1        0.0050
     24 C         138.3201  143.2058  164.5415 C.3     1  UNL1        0.0050
     25 C         138.7746  141.8740  164.0218 C.3     1  UNL1        0.0261
     26 C         142.2910  139.2833  166.4147 C.2     1  UNL1        0.2837
     27 O         143.5539  138.8002  165.7651 O.2     1  UNL1       -0.2665
     28 N         141.0607  139.5091  165.5869 N.am    1  UNL1       -0.2779
     29 H         140.2319  139.8262  166.0132 H       1  UNL1        0.1553
     30 C         141.7038  140.4807  170.0597 C.ar    1  UNL1        0.1469
     31 C         142.7134  139.3917  170.2715 C.ar    1  UNL1        0.1282
     32 N         143.0562  138.8106  168.9319 N.ar    1  UNL1       -0.2205
     33 C         142.2586  139.5405  167.8921 C.ar    1  UNL1        0.1958
     34 N         141.4227  140.5726  168.5892 N.ar    1  UNL1       -0.3257
     35 H         140.7991  141.2002  168.1573 H       1  UNL1        0.1682
     36 N         140.4643  142.1771  172.2013 N.1     1  UNL1       -0.1893
     37 C         141.0840  141.3289  171.1305 C.1     1  UNL1        0.1194
@<TRIPOS>BOND
     1    36    37    3
     2    37    30    1
     3    30    31   ar
     4    31    32   ar
     5    32    33   ar
     6    33    26    1
     7    26    27    2
     8    26    28   am
     9    28     1    1
    10     1     2   ar
    11     2     3   ar
    12     3     4   ar
    13     4     7    1
    14     7     8    1
    15     8     9    1
    16     9    10    1
    17    10    13    1
    18    13    14    1
    19    14    15   ar
    20    15    16   ar
    21    16    17   ar
    22    17    18   ar
    23    18    19   ar
    24    10    11    1
    25    11    12    1
    26     4     5   ar
    27     5     6   ar
    28     6    20    1
    29    20    21    2
    30    21    22    1
    31    22    23    1
    32    23    24    1
    33    24    25    1
    34    33    34   ar
    35    34    30   ar
    36     6     1   ar
    37    25    20    1
    38    12     7    1
    39    19    14   ar
    40    28    29    1
    41    34    35    1
@<TRIPOS>MOLECULE
*****
 37 41 0 0 0
SMALL
GASTEIGER

@<TRIPOS>ATOM
      1 C         140.2033  142.7734  160.2639 C.ar    1  UNL1        0.0502
      2 C         139.3516  142.4917  159.0618 C.ar    1  UNL1        0.0143
      3 C         139.2916  143.4817  157.9366 C.ar    1  UNL1       -0.0030
      4 C         140.0834  144.7534  158.0135 C.ar    1  UNL1       -0.0223
      5 C         140.9351  145.0351  159.2156 C.ar    1  UNL1       -0.0034
      6 C         140.9950  144.0450  160.3409 C.ar    1  UNL1        0.0089
      7 C         140.0234  145.7435  156.8882 C.3     1  UNL1        0.0251
      8 C         139.2037  146.9916  157.0302 C.3     1  UNL1        0.0217
      9 C         139.1438  147.9817  155.9049 C.3     1  UNL1        0.0728
     10 N         139.9035  147.7235  154.6375 N.3     1  UNL1       -0.2677
     11 C         140.7232  146.4753  154.4955 C.3     1  UNL1        0.0728
     12 C         140.7832  145.4853  155.6208 C.3     1  UNL1        0.0217
     13 C         139.8436  148.7135  153.5123 C.3     1  UNL1        0.1186
     14 C         140.9421  149.7201  153.3397 C.ar    1  UNL1        0.0752
     15 C         141.0365  150.8940  154.2686 C.ar    1  UNL1        0.0161
     16 C         142.1352  151.9006  154.0960 C.ar    1  UNL1        0.0028
     17 C         143.1394  151.7333  152.9944 C.ar    1  UNL1        0.0207
     18 C         143.0450  150.5594  152.0654 C.ar    1  UNL1        0.0985
     19 N         141.9464  149.5528  152.2380 N.ar    1  UNL1       -0.2468
     20 C         141.8467  144.3267  161.5431 C.2     1  UNL1       -0.0253
     21 C         143.2525  143.8071  161.6047 C.2     1  UNL1       -0.0303
     22 C         144.1042  144.0887  162.8068 C.3     1  UNL1        0.0257
     23 C         143.5502  144.8899  163.9475 C.3     1  UNL1        0.0050
     24 C         142.1444  145.4095  163.8860 C.3     1  UNL1        0.0050
     25 C         141.2927  145.1279  162.6837 C.3     1  UNL1        0.0261
     26 C         139.1788  141.7589  162.4253 C.2     1  UNL1        0.2837
     27 O         138.0344  142.7246  162.3361 O.2     1  UNL1       -0.2665
     28 N         140.2632  141.7833  161.3893 N.am    1  UNL1       -0.2779
     29 H         141.0143  141.1495  161.4478 H       1  UNL1        0.1553
     30 C         138.6013  139.3548  165.4172 C.ar    1  UNL1        0.1469
     31 C         140.0606  139.1362  165.1473 C.ar    1  UNL1        0.1282
     32 N         140.4545  140.0102  163.9937 N.ar    1  UNL1       -0.2205
     33 C         139.2387  140.7689  163.5506 C.ar    1  UNL1        0.1958
     34 N         138.0934  140.3638  164.4304 N.ar    1  UNL1       -0.3257
     35 H         137.1704  140.7011  164.3707 H       1  UNL1        0.1682
     36 N         136.9828  138.0098  167.5554 N.1     1  UNL1       -0.1893
     37 C         137.7920  138.6823  166.4863 C.1     1  UNL1        0.1194
@<TRIPOS>BOND
     1    36    37    3
     2    37    30    1
     3    30    31   ar
     4    31    32   ar
     5    32    33   ar
     6    33    26    1
     7    26    27    2
     8    26    28   am
     9    28     1    1
    10     1     2   ar
    11     2     3   ar
    12     3     4   ar
    13     4     7    1
    14     7     8    1
    15     8     9    1
    16     9    10    1
    17    10    13    1
    18    13    14    1
    19    14    15   ar
    20    15    16   ar
    21    16    17   ar
    22    17    18   ar
    23    18    19   ar
    24    10    11    1
    25    11    12    1
    26     4     5   ar
    27     5     6   ar
    28     6    20    1
    29    20    21    2
    30    21    22    1
    31    22    23    1
    32    23    24    1
    33    24    25    1
    34    33    34   ar
    35    34    30   ar
    36     6     1   ar
    37    25    20    1
    38    12     7    1
    39    19    14   ar
    40    28    29    1
    41    34    35    1
@<TRIPOS>MOLECULE
*****
 37 41 0 0 0
SMALL
GASTEIGER

@<TRIPOS>ATOM
      1 C         140.7993  143.2756  163.3098 C.ar    1  UNL1        0.0502
      2 C         139.6749  144.0993  162.7557 C.ar    1  UNL1        0.0143
      3 C         139.6808  144.5006  161.3105 C.ar    1  UNL1       -0.0030
      4 C         140.8111  144.0783  160.4193 C.ar    1  UNL1       -0.0223
      5 C         141.9355  143.2546  160.9735 C.ar    1  UNL1       -0.0034
      6 C         141.9296  142.8532  162.4187 C.ar    1  UNL1        0.0089
      7 C         140.8169  144.4797  158.9740 C.3     1  UNL1        0.0251
      8 C         141.8851  145.3956  158.4543 C.3     1  UNL1        0.0217
      9 C         141.8909  145.7970  157.0089 C.3     1  UNL1        0.0728
     10 N         140.8285  145.2825  156.0834 N.3     1  UNL1       -0.2677
     11 C         139.7602  144.3666  156.6032 C.3     1  UNL1        0.0728
     12 C         139.7545  143.9653  158.0485 C.3     1  UNL1        0.0217
     13 C         140.8342  145.6839  154.6382 C.3     1  UNL1        0.1186
     14 C         140.4689  147.0853  154.2475 C.ar    1  UNL1        0.0752
     15 C         139.5882  147.9075  155.1410 C.ar    1  UNL1        0.0161
     16 C         139.2229  149.3089  154.7503 C.ar    1  UNL1        0.0028
     17 C         139.7382  149.8881  153.4662 C.ar    1  UNL1        0.0207
     18 C         140.6189  149.0659  152.5728 C.ar    1  UNL1        0.0985
     19 N         140.9843  147.6645  152.9634 N.ar    1  UNL1       -0.2468
     20 C         143.0541  142.0295  162.9729 C.2     1  UNL1       -0.0253
     21 C         142.9191  140.5381  163.0600 C.2     1  UNL1       -0.0303
     22 C         144.0435  139.7143  163.6142 C.3     1  UNL1        0.0257
     23 C         145.3029  140.3819  164.0813 C.3     1  UNL1        0.0050
     24 C         145.4379  141.8733  163.9943 C.3     1  UNL1        0.0050
     25 C         144.3134  142.6971  163.4401 C.3     1  UNL1        0.0261
     26 C         139.9818  141.6948  165.2027 C.2     1  UNL1        0.2837
     27 O         139.1759  140.9169  164.2050 O.2     1  UNL1       -0.2665
     28 N         140.7935  142.8741  164.7552 N.am    1  UNL1       -0.2779
     29 H         141.3225  143.3847  165.4100 H       1  UNL1        0.1553
     30 C         140.2003  141.3622  169.0636 C.ar    1  UNL1        0.1469
     31 C         139.7336  139.9891  168.6804 C.ar    1  UNL1        0.1282
     32 N         139.5949  139.9466  167.1874 N.ar    1  UNL1       -0.2205
     33 C         139.9759  141.2934  166.6480 C.ar    1  UNL1        0.1958
     34 N         140.3501  142.1683  167.8075 N.ar    1  UNL1       -0.3257
     35 H         140.6426  143.1067  167.7536 H       1  UNL1        0.1682
     36 N         140.7395  142.3268  171.8527 N.1     1  UNL1       -0.1893
     37 C         140.4699  141.8445  170.4582 C.1     1  UNL1        0.1194
@<TRIPOS>BOND
     1    36    37    3
     2    37    30    1
     3    30    31   ar
     4    31    32   ar
     5    32    33   ar
     6    33    26    1
     7    26    27    2
     8    26    28   am
     9    28     1    1
    10     1     2   ar
    11     2     3   ar
    12     3     4   ar
    13     4     7    1
    14     7     8    1
    15     8     9    1
    16     9    10    1
    17    10    13    1
    18    13    14    1
    19    14    15   ar
    20    15    16   ar
    21    16    17   ar
    22    17    18   ar
    23    18    19   ar
    24    10    11    1
    25    11    12    1
    26     4     5   ar
    27     5     6   ar
    28     6    20    1
    29    20    21    2
    30    21    22    1
    31    22    23    1
    32    23    24    1
    33    24    25    1
    34    33    34   ar
    35    34    30   ar
    36     6     1   ar
    37    25    20    1
    38    12     7    1
    39    19    14   ar
    40    28    29    1
    41    34    35    1
@<TRIPOS>MOLECULE
*****
 37 41 0 0 0
SMALL
GASTEIGER

@<TRIPOS>ATOM
      1 C         142.9860  141.6968  163.8916 C.ar    1  UNL1        0.0502
      2 C         144.2516  141.1764  163.2774 C.ar    1  UNL1        0.0143
      3 C         144.4551  141.2608  161.7937 C.ar    1  UNL1       -0.0030
      4 C         143.3929  141.8655  160.9242 C.ar    1  UNL1       -0.0223
      5 C         142.1273  142.3859  161.5384 C.ar    1  UNL1       -0.0034
      6 C         141.9238  142.3015  163.0221 C.ar    1  UNL1        0.0089
      7 C         143.5964  141.9499  159.4404 C.3     1  UNL1        0.0251
      8 C         144.0971  140.7559  158.6830 C.3     1  UNL1        0.0217
      9 C         144.3006  140.8403  157.1992 C.3     1  UNL1        0.0728
     10 N         144.0034  142.1186  156.4729 N.3     1  UNL1       -0.2677
     11 C         143.5027  143.3126  157.2304 C.3     1  UNL1        0.0728
     12 C         143.2992  143.2282  158.7141 C.3     1  UNL1        0.0217
     13 C         144.2069  142.2030  154.9892 C.3     1  UNL1        0.1186
     14 C         145.4064  142.9136  154.4360 C.ar    1  UNL1        0.0752
     15 C         146.7802  142.3569  154.6661 C.ar    1  UNL1        0.0161
     16 C         147.9798  143.0675  154.1128 C.ar    1  UNL1        0.0028
     17 C         147.8056  144.3348  153.3294 C.ar    1  UNL1        0.0207
     18 C         146.4318  144.8915  153.0993 C.ar    1  UNL1        0.0985
     19 N         145.2323  144.1809  153.6525 N.ar    1  UNL1       -0.2468
     20 C         140.6581  142.8220  163.6364 C.2     1  UNL1       -0.0253
     21 C         139.4650  141.9229  163.7712 C.2     1  UNL1       -0.0303
     22 C         138.1994  142.4432  164.3854 C.3     1  UNL1        0.0257
     23 C         138.1268  143.8627  164.8649 C.3     1  UNL1        0.0050
     24 C         139.3199  144.7618  164.7302 C.3     1  UNL1        0.0050
     25 C         140.5856  144.2414  164.1159 C.3     1  UNL1        0.0261
     26 C         142.6080  140.2759  166.0337 C.2     1  UNL1        0.2837
     27 O         142.6371  139.0238  165.2082 O.2     1  UNL1       -0.2665
     28 N         142.7825  141.6124  165.3754 N.am    1  UNL1       -0.2779
     29 H         142.7634  142.4342  165.9172 H       1  UNL1        0.1553
     30 C         141.7110  140.7079  169.7852 C.ar    1  UNL1        0.1469
     31 C         142.4717  139.4154  169.8160 C.ar    1  UNL1        0.1282
     32 N         142.9004  139.0963  168.4145 N.ar    1  UNL1       -0.2205
     33 C         142.4045  140.1915  167.5174 C.ar    1  UNL1        0.1958
     34 N         141.6695  141.1875  168.3645 N.ar    1  UNL1       -0.3257
     35 H         141.2359  142.0113  168.0444 H       1  UNL1        0.1682
     36 N         140.4874  142.0907  172.1497 N.1     1  UNL1       -0.1893
     37 C         141.0992  141.3993  170.9674 C.1     1  UNL1        0.1194
@<TRIPOS>BOND
     1    36    37    3
     2    37    30    1
     3    30    31   ar
     4    31    32   ar
     5    32    33   ar
     6    33    26    1
     7    26    27    2
     8    26    28   am
     9    28     1    1
    10     1     2   ar
    11     2     3   ar
    12     3     4   ar
    13     4     7    1
    14     7     8    1
    15     8     9    1
    16     9    10    1
    17    10    13    1
    18    13    14    1
    19    14    15   ar
    20    15    16   ar
    21    16    17   ar
    22    17    18   ar
    23    18    19   ar
    24    10    11    1
    25    11    12    1
    26     4     5   ar
    27     5     6   ar
    28     6    20    1
    29    20    21    2
    30    21    22    1
    31    22    23    1
    32    23    24    1
    33    24    25    1
    34    33    34   ar
    35    34    30   ar
    36     6     1   ar
    37    25    20    1
    38    12     7    1
    39    19    14   ar
    40    28    29    1
    41    34    35    1
@<TRIPOS>MOLECULE
*****
 37 41 0 0 0
SMALL
GASTEIGER

@<TRIPOS>ATOM
      1 C         140.5397  140.1434  163.1076 C.ar    1  UNL1        0.0502
      2 C         139.7847  138.9148  162.6947 C.ar    1  UNL1        0.0143
      3 C         139.9850  138.3363  161.3254 C.ar    1  UNL1       -0.0030
      4 C         140.9403  138.9863  160.3689 C.ar    1  UNL1       -0.0223
      5 C         141.6953  140.2149  160.7818 C.ar    1  UNL1       -0.0034
      6 C         141.4950  140.7935  162.1511 C.ar    1  UNL1        0.0089
      7 C         141.1406  138.4077  158.9995 C.3     1  UNL1        0.0251
      8 C         139.9584  138.1572  158.1109 C.3     1  UNL1        0.0217
      9 C         140.1587  137.5786  156.7415 C.3     1  UNL1        0.0728
     10 N         141.5412  137.2505  156.2608 N.3     1  UNL1       -0.2677
     11 C         142.7234  137.5011  157.1495 C.3     1  UNL1        0.0728
     12 C         142.5231  138.0797  158.5188 C.3     1  UNL1        0.0217
     13 C         141.7415  136.6719  154.8915 C.3     1  UNL1        0.1186
     14 C         141.6284  135.1914  154.6790 C.ar    1  UNL1        0.0752
     15 C         141.9396  134.2466  155.8018 C.ar    1  UNL1        0.0161
     16 C         141.8265  132.7660  155.5893 C.ar    1  UNL1        0.0028
     17 C         141.4023  132.2302  154.2540 C.ar    1  UNL1        0.0207
     18 C         141.0912  133.1750  153.1313 C.ar    1  UNL1        0.0985
     19 N         141.2042  134.6555  153.3437 N.ar    1  UNL1       -0.2468
     20 C         142.2501  142.0221  162.5640 C.2     1  UNL1       -0.0253
     21 C         143.5586  141.8912  163.2855 C.2     1  UNL1       -0.0303
     22 C         144.3136  143.1197  163.6984 C.3     1  UNL1        0.0257
     23 C         143.7601  144.4793  163.3898 C.3     1  UNL1        0.0050
     24 C         142.4516  144.6103  162.6683 C.3     1  UNL1        0.0050
     25 C         141.6965  143.3816  162.2554 C.3     1  UNL1        0.0261
     26 C         141.1001  140.1666  165.6444 C.2     1  UNL1        0.2837
     27 O         142.0610  139.0326  165.4425 O.2     1  UNL1       -0.2665
     28 N         140.3395  140.7220  164.4770 N.am    1  UNL1       -0.2779
     29 H         139.7088  141.4663  164.6095 H       1  UNL1        0.1553
     30 C         140.5455  142.3226  168.8239 C.ar    1  UNL1        0.1469
     31 C         140.6380  140.9484  169.4181 C.ar    1  UNL1        0.1282
     32 N         140.8571  139.9735  168.2994 N.ar    1  UNL1       -0.2205
     33 C         140.8999  140.7452  167.0138 C.ar    1  UNL1        0.1958
     34 N         140.7073  142.1970  167.3380 N.ar    1  UNL1       -0.3257
     35 H         140.6901  142.9374  166.6893 H       1  UNL1        0.1682
     36 N         140.1126  144.8743  170.3411 N.1     1  UNL1       -0.1893
     37 C         140.3290  143.5984  169.5825 C.1     1  UNL1        0.1194
@<TRIPOS>BOND
     1    36    37    3
     2    37    30    1
     3    30    31   ar
     4    31    32   ar
     5    32    33   ar
     6    33    26    1
     7    26    27    2
     8    26    28   am
     9    28     1    1
    10     1     2   ar
    11     2     3   ar
    12     3     4   ar
    13     4     7    1
    14     7     8    1
    15     8     9    1
    16     9    10    1
    17    10    13    1
    18    13    14    1
    19    14    15   ar
    20    15    16   ar
    21    16    17   ar
    22    17    18   ar
    23    18    19   ar
    24    10    11    1
    25    11    12    1
    26     4     5   ar
    27     5     6   ar
    28     6    20    1
    29    20    21    2
    30    21    22    1
    31    22    23    1
    32    23    24    1
    33    24    25    1
    34    33    34   ar
    35    34    30   ar
    36     6     1   ar
    37    25    20    1
    38    12     7    1
    39    19    14   ar
    40    28    29    1
    41    34    35    1
@<TRIPOS>MOLECULE
*****
 37 41 0 0 0
SMALL
GASTEIGER

@<TRIPOS>ATOM
      1 C         142.0891  140.9563  161.2023 C.ar    1  UNL1        0.0502
      2 C         141.7708  140.0971  160.0147 C.ar    1  UNL1        0.0143
      3 C         142.6195  140.1792  158.7807 C.ar    1  UNL1       -0.0030
      4 C         143.7864  141.1206  158.7342 C.ar    1  UNL1       -0.0223
      5 C         144.1046  141.9798  159.9218 C.ar    1  UNL1       -0.0034
      6 C         143.2560  141.8977  161.1558 C.ar    1  UNL1        0.0089
      7 C         144.6351  141.2028  157.5000 C.3     1  UNL1        0.0251
      8 C         145.5972  142.3402  157.3257 C.3     1  UNL1        0.0217
      9 C         146.4459  142.4224  156.0916 C.3     1  UNL1        0.0728
     10 N         146.3323  141.3670  155.0317 N.3     1  UNL1       -0.2677
     11 C         145.3701  140.2295  155.2060 C.3     1  UNL1        0.0728
     12 C         144.5215  140.1474  156.4401 C.3     1  UNL1        0.0217
     13 C         147.1809  141.4491  153.7976 C.3     1  UNL1        0.1186
     14 C         148.5895  141.9567  153.8884 C.ar    1  UNL1        0.0752
     15 C         149.0620  143.0292  152.9522 C.ar    1  UNL1        0.0161
     16 C         150.4706  143.5368  153.0430 C.ar    1  UNL1        0.0028
     17 C         151.4066  142.9719  154.0700 C.ar    1  UNL1        0.0207
     18 C         150.9341  141.8995  155.0063 C.ar    1  UNL1        0.0985
     19 N         149.5255  141.3919  154.9155 N.ar    1  UNL1       -0.2468
     20 C         143.5742  142.7569  162.3435 C.2     1  UNL1       -0.0253
     21 C         144.4038  142.2075  163.4660 C.2     1  UNL1       -0.0303
     22 C         144.7220  143.0666  164.6536 C.3     1  UNL1        0.0257
     23 C         144.2106  144.4753  164.7188 C.3     1  UNL1        0.0050
     24 C         143.3811  145.0248  163.5964 C.3     1  UNL1        0.0050
     25 C         143.0628  144.1655  162.4087 C.3     1  UNL1        0.0261
     26 C         141.5883  139.8996  163.5224 C.2     1  UNL1        0.2837
     27 O         142.7849  139.0072  163.3741 O.2     1  UNL1       -0.2665
     28 N         141.2404  140.8742  162.4365 N.am    1  UNL1       -0.2779
     29 H         140.4551  141.4599  162.5338 H       1  UNL1        0.1553
     30 C         139.0317  139.1408  166.3425 C.ar    1  UNL1        0.1469
     31 C         139.8360  140.2412  166.9688 C.ar    1  UNL1        0.1282
     32 N         140.8916  140.6594  165.9886 N.ar    1  UNL1       -0.2205
     33 C         140.7397  139.8174  164.7565 C.ar    1  UNL1        0.1958
     34 N         139.5903  138.8789  164.9752 N.ar    1  UNL1       -0.3257
     35 H         139.2603  138.2087  164.3340 H       1  UNL1        0.1682
     36 N         136.7131  137.7142  167.6031 N.1     1  UNL1       -0.1893
     37 C         137.8724  138.4275  166.9728 C.1     1  UNL1        0.1194
@<TRIPOS>BOND
     1    36    37    3
     2    37    30    1
     3    30    31   ar
     4    31    32   ar
     5    32    33   ar
     6    33    26    1
     7    26    27    2
     8    26    28   am
     9    28     1    1
    10     1     2   ar
    11     2     3   ar
    12     3     4   ar
    13     4     7    1
    14     7     8    1
    15     8     9    1
    16     9    10    1
    17    10    13    1
    18    13    14    1
    19    14    15   ar
    20    15    16   ar
    21    16    17   ar
    22    17    18   ar
    23    18    19   ar
    24    10    11    1
    25    11    12    1
    26     4     5   ar
    27     5     6   ar
    28     6    20    1
    29    20    21    2
    30    21    22    1
    31    22    23    1
    32    23    24    1
    33    24    25    1
    34    33    34   ar
    35    34    30   ar
    36     6     1   ar
    37    25    20    1
    38    12     7    1
    39    19    14   ar
    40    28    29    1
    41    34    35    1
@<TRIPOS>MOLECULE
*****
 37 41 0 0 0
SMALL
GASTEIGER

@<TRIPOS>ATOM
      1 C         142.7566  141.5643  163.6797 C.ar    1  UNL1        0.0502
      2 C         144.0403  140.8918  163.2928 C.ar    1  UNL1        0.0143
      3 C         144.4422  140.8165  161.8497 C.ar    1  UNL1       -0.0030
      4 C         143.5604  141.4138  160.7934 C.ar    1  UNL1       -0.0223
      5 C         142.2767  142.0863  161.1803 C.ar    1  UNL1       -0.0034
      6 C         141.8748  142.1616  162.6234 C.ar    1  UNL1        0.0089
      7 C         143.9624  141.3385  159.3502 C.3     1  UNL1        0.0251
      8 C         144.7661  142.4464  158.7367 C.3     1  UNL1        0.0217
      9 C         145.1681  142.3711  157.2935 C.3     1  UNL1        0.0728
     10 N         144.7663  141.1878  156.4638 N.3     1  UNL1       -0.2677
     11 C         143.9625  140.0799  157.0773 C.3     1  UNL1        0.0728
     12 C         143.5606  140.1552  158.5205 C.3     1  UNL1        0.0217
     13 C         145.1682  141.1125  155.0206 C.3     1  UNL1        0.1186
     14 C         146.1683  142.0848  154.4689 C.ar    1  UNL1        0.0752
     15 C         145.7051  143.3843  153.8802 C.ar    1  UNL1        0.0161
     16 C         146.7053  144.3566  153.3285 C.ar    1  UNL1        0.0028
     17 C         148.1686  144.0294  153.3655 C.ar    1  UNL1        0.0207
     18 C         148.6319  142.7298  153.9542 C.ar    1  UNL1        0.0985
     19 N         147.6318  141.7575  154.5059 N.ar    1  UNL1       -0.2468
     20 C         140.5910  142.8341  163.0104 C.2     1  UNL1       -0.0253
     21 C         140.6207  144.1567  163.7174 C.2     1  UNL1       -0.0303
     22 C         139.3370  144.8293  164.1043 C.3     1  UNL1        0.0257
     23 C         138.0236  144.1792  163.7843 C.3     1  UNL1        0.0050
     24 C         137.9939  142.8565  163.0774 C.3     1  UNL1        0.0050
     25 C         139.2777  142.1840  162.6904 C.3     1  UNL1        0.0261
     26 C         143.1180  142.5182  166.0692 C.2     1  UNL1        0.2837
     27 O         144.2832  143.3215  165.5722 O.2     1  UNL1       -0.2665
     28 N         142.3547  141.6396  165.1229 N.am    1  UNL1       -0.2779
     29 H         141.5899  141.1124  165.4491 H       1  UNL1        0.1553
     30 C         141.3825  142.8073  169.5289 C.ar    1  UNL1        0.1469
     31 C         142.8126  142.6116  169.9375 C.ar    1  UNL1        0.1282
     32 N         143.6367  142.4795  168.6911 N.ar    1  UNL1       -0.2205
     33 C         142.7161  142.5935  167.5124 C.ar    1  UNL1        0.1958
     34 N         141.3229  142.7961  168.0302 N.ar    1  UNL1       -0.3257
     35 H         140.5118  142.9029  167.4825 H       1  UNL1        0.1682
     36 N         139.0511  143.1591  171.3839 N.1     1  UNL1       -0.1893
     37 C         140.2168  142.9832  170.4564 C.1     1  UNL1        0.1194
@<TRIPOS>BOND
     1    36    37    3
     2    37    30    1
     3    30    31   ar
     4    31    32   ar
     5    32    33   ar
     6    33    26    1
     7    26    27    2
     8    26    28   am
     9    28     1    1
    10     1     2   ar
    11     2     3   ar
    12     3     4   ar
    13     4     7    1
    14     7     8    1
    15     8     9    1
    16     9    10    1
    17    10    13    1
    18    13    14    1
    19    14    15   ar
    20    15    16   ar
    21    16    17   ar
    22    17    18   ar
    23    18    19   ar
    24    10    11    1
    25    11    12    1
    26     4     5   ar
    27     5     6   ar
    28     6    20    1
    29    20    21    2
    30    21    22    1
    31    22    23    1
    32    23    24    1
    33    24    25    1
    34    33    34   ar
    35    34    30   ar
    36     6     1   ar
    37    25    20    1
    38    12     7    1
    39    19    14   ar
    40    28    29    1
    41    34    35    1
