@<TRIPOS>MOLECULE
*****
 23 25 0 0 0
SMALL
GASTEIGER

@<TRIPOS>ATOM
      1 O         143.3500  138.6267  165.6861 O.2     1  UNL1       -0.2699
      2 C         142.2329  139.5888  165.4098 C.2     1  UNL1        0.2489
      3 N         142.5118  140.8756  164.6912 N.am    1  UNL1       -0.2779
      4 C         140.8368  139.2642  165.8522 C.ar    1  UNL1        0.0575
      5 C         140.2702  139.9106  167.0815 C.ar    1  UNL1        0.0045
      6 C         138.8742  139.5860  167.5240 C.ar    1  UNL1        0.0001
      7 C         138.0448  138.6150  166.7371 C.ar    1  UNL1       -0.0001
      8 C         138.6114  137.9686  165.5078 C.ar    1  UNL1        0.0040
      9 C         140.0074  138.2932  165.0654 C.ar    1  UNL1        0.0758
     10 C         140.5739  137.6468  163.8361 C.3     1  UNL1        0.4187
     11 F         141.1405  137.0004  162.6068 F       1  UNL1       -0.1659
     12 F         141.2047  136.5838  164.6858 F       1  UNL1       -0.1659
     13 F         139.9431  138.7099  162.9864 F       1  UNL1       -0.1659
     14 C         141.3947  141.8377  164.4149 C.3     1  UNL1        0.0926
     15 C         140.9754  142.9781  165.2945 C.3     1  UNL1        0.0383
     16 C         139.8223  143.6736  164.6338 C.3     1  UNL1        0.0704
     17 N         139.5289  142.9631  163.3457 N.3     1  UNL1       -0.2960
     18 C         140.5006  141.8285  163.2105 C.3     1  UNL1        0.0887
     19 H         139.6377  143.6073  162.5625 H       1  UNL1        0.1233
     20 C         143.9078  141.2002  164.2487 C.3     1  UNL1        0.0756
     21 C         144.9138  140.5473  163.3479 C.3     1  UNL1        0.0199
     22 C         145.8821  141.6593  163.6231 C.3     1  UNL1        0.0034
     23 C         144.8761  142.3122  164.5241 C.3     1  UNL1        0.0199
@<TRIPOS>BOND
     1     1     2    2
     2     2     4    1
     3     4     5   ar
     4     5     6   ar
     5     6     7   ar
     6     7     8   ar
     7     8     9   ar
     8     9    10    1
     9    10    11    1
    10    10    12    1
    11    10    13    1
    12     2     3   am
    13     3    20    1
    14    20    21    1
    15    21    22    1
    16    22    23    1
    17    14     3    1
    18    14    15    1
    19    15    16    1
    20    16    17    1
    21    17    18    1
    22     9     4   ar
    23    23    20    1
    24    18    14    1
    25    17    19    1
@<TRIPOS>MOLECULE
*****
 23 25 0 0 0
SMALL
GASTEIGER

@<TRIPOS>ATOM
      1 O         144.0797  137.9358  167.0062 O.2     1  UNL1       -0.2699
      2 C         142.9309  138.6517  166.3599 C.2     1  UNL1        0.2489
      3 N         142.1240  139.6402  167.1484 N.am    1  UNL1       -0.2779
      4 C         142.5889  138.3790  164.9251 C.ar    1  UNL1        0.0575
      5 C         141.4970  137.4081  164.5857 C.ar    1  UNL1        0.0045
      6 C         141.1550  137.1354  163.1510 C.ar    1  UNL1        0.0001
      7 C         141.9049  137.8336  162.0555 C.ar    1  UNL1       -0.0001
      8 C         142.9968  138.8045  162.3948 C.ar    1  UNL1        0.0040
      9 C         143.3388  139.0772  163.8296 C.ar    1  UNL1        0.0758
     10 C         144.4306  140.0481  164.1689 C.3     1  UNL1        0.4187
     11 F         145.5225  141.0190  164.5082 F       1  UNL1       -0.1659
     12 F         145.4003  138.9114  164.3012 F       1  UNL1       -0.1659
     13 F         143.4609  141.1849  164.0366 F       1  UNL1       -0.1659
     14 C         140.9752  140.3561  166.5022 C.3     1  UNL1        0.0926
     15 C         139.5855  139.8182  166.3302 C.3     1  UNL1        0.0383
     16 C         138.7658  140.8653  165.6361 C.3     1  UNL1        0.0704
     17 N         139.6488  142.0503  165.3791 N.3     1  UNL1       -0.2960
     18 C         141.0143  141.7355  165.9144 C.3     1  UNL1        0.0887
     19 H         139.2723  142.8716  165.8524 H       1  UNL1        0.1233
     20 C         142.4660  139.9129  168.5833 C.3     1  UNL1        0.0756
     21 C         143.0116  141.0882  169.3387 C.3     1  UNL1        0.0199
     22 C         142.9496  140.2984  170.6125 C.3     1  UNL1        0.0034
     23 C         142.4039  139.1230  169.8570 C.3     1  UNL1        0.0199
@<TRIPOS>BOND
     1     1     2    2
     2     2     4    1
     3     4     5   ar
     4     5     6   ar
     5     6     7   ar
     6     7     8   ar
     7     8     9   ar
     8     9    10    1
     9    10    11    1
    10    10    12    1
    11    10    13    1
    12     2     3   am
    13     3    20    1
    14    20    21    1
    15    21    22    1
    16    22    23    1
    17    14     3    1
    18    14    15    1
    19    15    16    1
    20    16    17    1
    21    17    18    1
    22     9     4   ar
    23    23    20    1
    24    18    14    1
    25    17    19    1
@<TRIPOS>MOLECULE
*****
 23 25 0 0 0
SMALL
GASTEIGER

@<TRIPOS>ATOM
      1 O         137.8861  138.7017  167.2569 O.2     1  UNL1       -0.2699
      2 C         138.7233  139.6519  166.4530 C.2     1  UNL1        0.2489
      3 N         139.8065  140.4462  167.1205 N.am    1  UNL1       -0.2779
      4 C         138.4772  139.8077  164.9815 C.ar    1  UNL1        0.0575
      5 C         137.6395  140.9453  164.4775 C.ar    1  UNL1        0.0045
      6 C         137.3934  141.1012  163.0061 C.ar    1  UNL1        0.0001
      7 C         137.9851  140.1194  162.0387 C.ar    1  UNL1       -0.0001
      8 C         138.8229  138.9818  162.5426 C.ar    1  UNL1        0.0040
      9 C         139.0689  138.8260  164.0141 C.ar    1  UNL1        0.0758
     10 C         139.9067  137.6883  164.5180 C.3     1  UNL1        0.4187
     11 F         140.7445  136.5507  165.0220 F       1  UNL1       -0.1659
     12 F         141.1508  138.4441  164.1559 F       1  UNL1       -0.1659
     13 F         138.6626  136.9326  164.8801 F       1  UNL1       -0.1659
     14 C         140.6437  141.3964  166.3166 C.3     1  UNL1        0.0926
     15 C         140.2963  142.8188  165.9909 C.3     1  UNL1        0.0383
     16 C         141.4132  143.3925  165.1703 C.3     1  UNL1        0.0704
     17 N         142.4509  142.3247  164.9889 N.3     1  UNL1       -0.2960
     18 C         141.9753  141.0910  165.6973 C.3     1  UNL1        0.0887
     19 H         143.3379  142.6326  165.3875 H       1  UNL1        0.1233
     20 C         140.0526  140.2904  168.5920 C.3     1  UNL1        0.0756
     21 C         141.1937  139.7950  169.4300 C.3     1  UNL1        0.0199
     22 C         140.4005  140.0700  170.6730 C.3     1  UNL1        0.0034
     23 C         139.2593  140.5654  169.8350 C.3     1  UNL1        0.0199
@<TRIPOS>BOND
     1     1     2    2
     2     2     4    1
     3     4     5   ar
     4     5     6   ar
     5     6     7   ar
     6     7     8   ar
     7     8     9   ar
     8     9    10    1
     9    10    11    1
    10    10    12    1
    11    10    13    1
    12     2     3   am
    13     3    20    1
    14    20    21    1
    15    21    22    1
    16    22    23    1
    17    14     3    1
    18    14    15    1
    19    15    16    1
    20    16    17    1
    21    17    18    1
    22     9     4   ar
    23    23    20    1
    24    18    14    1
    25    17    19    1
@<TRIPOS>MOLECULE
*****
 23 25 0 0 0
SMALL
GASTEIGER

@<TRIPOS>ATOM
      1 O         140.4472  143.1444  166.4076 O.2     1  UNL1       -0.2699
      2 C         140.0790  141.7008  166.5816 C.2     1  UNL1        0.2489
      3 N         139.1210  141.0509  165.6277 N.am    1  UNL1       -0.2779
      4 C         140.6687  140.9070  167.7096 C.ar    1  UNL1        0.0575
      5 C         139.9164  140.7635  168.9993 C.ar    1  UNL1        0.0045
      6 C         140.5060  139.9698  170.1273 C.ar    1  UNL1        0.0001
      7 C         141.8480  139.3197  169.9655 C.ar    1  UNL1       -0.0001
      8 C         142.6004  139.4632  168.6758 C.ar    1  UNL1        0.0040
      9 C         142.0107  140.2568  167.5478 C.ar    1  UNL1        0.0758
     10 C         142.7630  140.4004  166.2581 C.3     1  UNL1        0.4187
     11 F         143.5154  140.5439  164.9684 F       1  UNL1       -0.1659
     12 F         143.2955  141.7257  166.7162 F       1  UNL1       -0.1659
     13 F         142.2306  139.0750  165.8000 F       1  UNL1       -0.1659
     14 C         138.7528  139.6072  165.8018 C.3     1  UNL1        0.0926
     15 C         137.8232  139.0535  166.8406 C.3     1  UNL1        0.0383
     16 C         137.7453  137.5679  166.6484 C.3     1  UNL1        0.0704
     17 N         138.6268  137.2035  165.4907 N.3     1  UNL1       -0.2960
     18 C         139.2494  138.4639  164.9675 C.3     1  UNL1        0.0887
     19 H         138.0711  136.7619  164.7581 H       1  UNL1        0.1233
     20 C         138.5313  141.8446  164.4998 C.3     1  UNL1        0.0756
     21 C         138.5508  141.7376  163.0038 C.3     1  UNL1        0.0199
     22 C         137.6972  142.9672  162.9047 C.3     1  UNL1        0.0034
     23 C         137.6778  143.0741  164.4007 C.3     1  UNL1        0.0199
@<TRIPOS>BOND
     1     1     2    2
     2     2     4    1
     3     4     5   ar
     4     5     6   ar
     5     6     7   ar
     6     7     8   ar
     7     8     9   ar
     8     9    10    1
     9    10    11    1
    10    10    12    1
    11    10    13    1
    12     2     3   am
    13     3    20    1
    14    20    21    1
    15    21    22    1
    16    22    23    1
    17    14     3    1
    18    14    15    1
    19    15    16    1
    20    16    17    1
    21    17    18    1
    22     9     4   ar
    23    23    20    1
    24    18    14    1
    25    17    19    1
@<TRIPOS>MOLECULE
*****
 23 25 0 0 0
SMALL
GASTEIGER

@<TRIPOS>ATOM
      1 O         140.5498  140.9539  163.3057 O.2     1  UNL1       -0.2699
      2 C         140.8141  140.4011  164.6748 C.2     1  UNL1        0.2489
      3 N         142.0771  140.7626  165.3987 N.am    1  UNL1       -0.2779
      4 C         139.8153  139.4866  165.3201 C.ar    1  UNL1        0.0575
      5 C         138.9431  139.9927  166.4306 C.ar    1  UNL1        0.0045
      6 C         137.9443  139.0783  167.0758 C.ar    1  UNL1        0.0001
      7 C         137.8177  137.6580  166.6106 C.ar    1  UNL1       -0.0001
      8 C         138.6899  137.1520  165.5000 C.ar    1  UNL1        0.0040
      9 C         139.6886  138.0663  164.8548 C.ar    1  UNL1        0.0758
     10 C         140.5608  137.5603  163.7442 C.3     1  UNL1        0.4187
     11 F         141.4329  137.0543  162.6337 F       1  UNL1       -0.1659
     12 F         139.5235  137.9720  162.7420 F       1  UNL1       -0.1659
     13 F         141.5981  137.1486  164.7464 F       1  UNL1       -0.1659
     14 C         142.3413  140.2098  166.7678 C.3     1  UNL1        0.0926
     15 C         141.9677  140.8583  168.0678 C.3     1  UNL1        0.0383
     16 C         142.4211  139.9607  169.1808 C.3     1  UNL1        0.0704
     17 N         143.0750  138.7575  168.5687 N.3     1  UNL1       -0.2960
     18 C         143.0257  138.9114  167.0774 C.3     1  UNL1        0.0887
     19 H         142.5748  137.9129  168.8462 H       1  UNL1        0.1233
     20 C         143.0759  141.6771  164.7534 C.3     1  UNL1        0.0756
     21 C         143.0694  143.1090  164.3070 C.3     1  UNL1        0.0199
     22 C         144.4884  142.9702  163.8409 C.3     1  UNL1        0.0034
     23 C         144.4949  141.5382  164.2874 C.3     1  UNL1        0.0199
@<TRIPOS>BOND
     1     1     2    2
     2     2     4    1
     3     4     5   ar
     4     5     6   ar
     5     6     7   ar
     6     7     8   ar
     7     8     9   ar
     8     9    10    1
     9    10    11    1
    10    10    12    1
    11    10    13    1
    12     2     3   am
    13     3    20    1
    14    20    21    1
    15    21    22    1
    16    22    23    1
    17    14     3    1
    18    14    15    1
    19    15    16    1
    20    16    17    1
    21    17    18    1
    22     9     4   ar
    23    23    20    1
    24    18    14    1
    25    17    19    1
@<TRIPOS>MOLECULE
*****
 23 25 0 0 0
SMALL
GASTEIGER

@<TRIPOS>ATOM
      1 O         143.3556  138.9532  166.2355 O.2     1  UNL1       -0.2699
      2 C         142.2099  139.7261  165.6523 C.2     1  UNL1        0.2489
      3 N         142.4726  140.8364  164.6786 N.am    1  UNL1       -0.2779
      4 C         140.8014  139.3885  166.0427 C.ar    1  UNL1        0.0575
      5 C         139.9651  138.5167  165.1536 C.ar    1  UNL1        0.0045
      6 C         138.5567  138.1791  165.5441 C.ar    1  UNL1        0.0001
      7 C         137.9847  138.7134  166.8236 C.ar    1  UNL1       -0.0001
      8 C         138.8210  139.5852  167.7127 C.ar    1  UNL1        0.0040
      9 C         140.2294  139.9228  167.3223 C.ar    1  UNL1        0.0758
     10 C         141.0657  140.7946  168.2114 C.3     1  UNL1        0.4187
     11 F         141.9020  141.6664  169.1005 F       1  UNL1       -0.1659
     12 F         141.6872  139.5743  168.8233 F       1  UNL1       -0.1659
     13 F         140.4441  142.0149  167.5994 F       1  UNL1       -0.1659
     14 C         141.3269  141.6093  164.0954 C.3     1  UNL1        0.0926
     15 C         140.7205  142.8552  164.6699 C.3     1  UNL1        0.0383
     16 C         139.6053  143.2878  163.7648 C.3     1  UNL1        0.0704
     17 N         139.5224  142.3093  162.6310 N.3     1  UNL1       -0.2960
     18 C         140.5864  141.2720  162.8353 C.3     1  UNL1        0.0887
     19 H         139.6750  142.7920  161.7454 H       1  UNL1        0.1233
     20 C         143.8810  141.1740  164.2881 C.3     1  UNL1        0.0756
     21 C         144.9575  140.4862  163.5020 C.3     1  UNL1        0.0199
     22 C         145.8728  141.6514  163.7359 C.3     1  UNL1        0.0034
     23 C         144.7962  142.3392  164.5220 C.3     1  UNL1        0.0199
@<TRIPOS>BOND
     1     1     2    2
     2     2     4    1
     3     4     5   ar
     4     5     6   ar
     5     6     7   ar
     6     7     8   ar
     7     8     9   ar
     8     9    10    1
     9    10    11    1
    10    10    12    1
    11    10    13    1
    12     2     3   am
    13     3    20    1
    14    20    21    1
    15    21    22    1
    16    22    23    1
    17    14     3    1
    18    14    15    1
    19    15    16    1
    20    16    17    1
    21    17    18    1
    22     9     4   ar
    23    23    20    1
    24    18    14    1
    25    17    19    1
@<TRIPOS>MOLECULE
*****
 23 25 0 0 0
SMALL
GASTEIGER

@<TRIPOS>ATOM
      1 O         140.1270  140.9462  167.2984 O.2     1  UNL1       -0.2699
      2 C         139.8059  141.2334  165.8616 C.2     1  UNL1        0.2489
      3 N         138.9923  140.2567  165.0653 N.am    1  UNL1       -0.2779
      4 C         140.2983  142.4973  165.2211 C.ar    1  UNL1        0.0575
      5 C         139.3443  143.6234  164.9533 C.ar    1  UNL1        0.0045
      6 C         139.8367  144.8872  164.3129 C.ar    1  UNL1        0.0001
      7 C         141.2831  145.0249  163.9403 C.ar    1  UNL1       -0.0001
      8 C         142.2371  143.8988  164.2081 C.ar    1  UNL1        0.0040
      9 C         141.7447  142.6350  164.8486 C.ar    1  UNL1        0.0758
     10 C         142.6988  141.5089  165.1164 C.3     1  UNL1        0.4187
     11 F         143.6528  140.3828  165.3843 F       1  UNL1       -0.1659
     12 F         142.9939  142.0812  166.4712 F       1  UNL1       -0.1659
     13 F         142.4036  140.9366  163.7617 F       1  UNL1       -0.1659
     14 C         138.6711  140.5439  163.6285 C.3     1  UNL1        0.0926
     15 C         139.5426  140.2261  162.4497 C.3     1  UNL1        0.0383
     16 C         138.8322  140.6851  161.2109 C.3     1  UNL1        0.0704
     17 N         137.5216  141.2865  161.6240 N.3     1  UNL1       -0.2960
     18 C         137.4221  141.1992  163.1182 C.3     1  UNL1        0.0887
     19 H         136.7534  140.7703  161.1952 H       1  UNL1        0.1233
     20 C         138.4998  138.9928  165.7058 C.3     1  UNL1        0.0756
     21 C         138.6328  137.5295  165.4045 C.3     1  UNL1        0.0199
     22 C         137.8033  137.2055  166.6115 C.3     1  UNL1        0.0034
     23 C         137.6703  138.6689  166.9128 C.3     1  UNL1        0.0199
@<TRIPOS>BOND
     1     1     2    2
     2     2     4    1
     3     4     5   ar
     4     5     6   ar
     5     6     7   ar
     6     7     8   ar
     7     8     9   ar
     8     9    10    1
     9    10    11    1
    10    10    12    1
    11    10    13    1
    12     2     3   am
    13     3    20    1
    14    20    21    1
    15    21    22    1
    16    22    23    1
    17    14     3    1
    18    14    15    1
    19    15    16    1
    20    16    17    1
    21    17    18    1
    22     9     4   ar
    23    23    20    1
    24    18    14    1
    25    17    19    1
@<TRIPOS>MOLECULE
*****
 23 25 0 0 0
SMALL
GASTEIGER

@<TRIPOS>ATOM
      1 O         141.1932  143.3337  162.5586 O.2     1  UNL1       -0.2699
      2 C         141.5795  142.5623  163.7856 C.2     1  UNL1        0.2489
      3 N         140.6591  142.5260  164.9694 N.am    1  UNL1       -0.2779
      4 C         142.8863  141.8271  163.8288 C.ar    1  UNL1        0.0575
      5 C         142.9211  140.3452  163.5992 C.ar    1  UNL1        0.0045
      6 C         144.2278  139.6100  163.6423 C.ar    1  UNL1        0.0001
      7 C         145.4998  140.3567  163.9151 C.ar    1  UNL1       -0.0001
      8 C         145.4650  141.8386  164.1447 C.ar    1  UNL1        0.0040
      9 C         144.1583  142.5738  164.1015 C.ar    1  UNL1        0.0758
     10 C         144.1236  144.0557  164.3311 C.3     1  UNL1        0.4187
     11 F         144.0888  145.5376  164.5607 F       1  UNL1       -0.1659
     12 F         144.1290  143.8262  165.8134 F       1  UNL1       -0.1659
     13 F         144.1181  144.2853  162.8488 F       1  UNL1       -0.1659
     14 C         141.0454  141.7545  166.1964 C.3     1  UNL1        0.0926
     15 C         141.8594  142.2737  167.3445 C.3     1  UNL1        0.0383
     16 C         142.0026  141.1685  168.3484 C.3     1  UNL1        0.0704
     17 N         141.2772  139.9662  167.8209 N.3     1  UNL1       -0.2960
     18 C         140.6857  140.3284  166.4909 C.3     1  UNL1        0.0887
     19 H         140.5359  139.6977  168.4680 H       1  UNL1        0.1233
     20 C         139.3523  143.2612  164.9262 C.3     1  UNL1        0.0756
     21 C         137.9557  142.9177  164.5004 C.3     1  UNL1        0.0199
     22 C         137.5042  144.3009  164.8652 C.3     1  UNL1        0.0034
     23 C         138.9009  144.6443  165.2911 C.3     1  UNL1        0.0199
@<TRIPOS>BOND
     1     1     2    2
     2     2     4    1
     3     4     5   ar
     4     5     6   ar
     5     6     7   ar
     6     7     8   ar
     7     8     9   ar
     8     9    10    1
     9    10    11    1
    10    10    12    1
    11    10    13    1
    12     2     3   am
    13     3    20    1
    14    20    21    1
    15    21    22    1
    16    22    23    1
    17    14     3    1
    18    14    15    1
    19    15    16    1
    20    16    17    1
    21    17    18    1
    22     9     4   ar
    23    23    20    1
    24    18    14    1
    25    17    19    1
@<TRIPOS>MOLECULE
*****
 23 25 0 0 0
SMALL
GASTEIGER

@<TRIPOS>ATOM
      1 O         139.3586  140.8937  163.2729 O.2     1  UNL1       -0.2699
      2 C         140.2181  141.4003  164.3930 C.2     1  UNL1        0.2489
      3 N         140.2050  140.7049  165.7219 N.am    1  UNL1       -0.2779
      4 C         141.0907  142.6024  164.1840 C.ar    1  UNL1        0.0575
      5 C         142.5673  142.4314  163.9828 C.ar    1  UNL1        0.0045
      6 C         143.4399  143.6334  163.7738 C.ar    1  UNL1        0.0001
      7 C         142.8359  145.0064  163.7662 C.ar    1  UNL1       -0.0001
      8 C         141.3594  145.1774  163.9675 C.ar    1  UNL1        0.0040
      9 C         140.4868  143.9754  164.1764 C.ar    1  UNL1        0.0758
     10 C         139.0102  144.1463  164.3777 C.3     1  UNL1        0.4187
     11 F         137.5336  144.3173  164.5790 F       1  UNL1       -0.1659
     12 F         139.2337  144.3461  165.8475 F       1  UNL1       -0.1659
     13 F         138.7867  143.9466  162.9080 F       1  UNL1       -0.1659
     14 C         141.0645  141.2115  166.8420 C.3     1  UNL1        0.0926
     15 C         140.7175  142.3249  167.7854 C.3     1  UNL1        0.0383
     16 C         141.8604  142.4952  168.7418 C.3     1  UNL1        0.0704
     17 N         142.9138  141.4870  168.3896 N.3     1  UNL1       -0.2960
     18 C         142.4218  140.6937  167.2155 C.3     1  UNL1        0.0887
     19 H         143.0779  140.8665  169.1823 H       1  UNL1        0.1233
     20 C         139.3324  139.5028  165.9308 C.3     1  UNL1        0.0756
     21 C         138.2282  139.1460  166.8812 C.3     1  UNL1        0.0199
     22 C         138.0984  137.8028  166.2262 C.3     1  UNL1        0.0034
     23 C         139.2026  138.1596  165.2758 C.3     1  UNL1        0.0199
@<TRIPOS>BOND
     1     1     2    2
     2     2     4    1
     3     4     5   ar
     4     5     6   ar
     5     6     7   ar
     6     7     8   ar
     7     8     9   ar
     8     9    10    1
     9    10    11    1
    10    10    12    1
    11    10    13    1
    12     2     3   am
    13     3    20    1
    14    20    21    1
    15    21    22    1
    16    22    23    1
    17    14     3    1
    18    14    15    1
    19    15    16    1
    20    16    17    1
    21    17    18    1
    22     9     4   ar
    23    23    20    1
    24    18    14    1
    25    17    19    1
