@<TRIPOS>MOLECULE
*****
 36 40 0 0 0
SMALL
GASTEIGER

@<TRIPOS>ATOM
      1 C         140.9969  139.9659  165.0553 C.ar    1  UNL1        0.0074
      2 C         140.6679  138.5460  164.7004 C.ar    1  UNL1        0.0003
      3 C         140.7365  138.0949  163.2715 C.ar    1  UNL1        0.0015
      4 C         141.1339  139.0636  162.1974 C.ar    1  UNL1        0.0176
      5 C         141.4629  140.4834  162.5522 C.ar    1  UNL1        0.0654
      6 C         141.3943  140.9346  163.9812 C.ar    1  UNL1        0.0178
      7 N         141.8603  141.4521  161.4781 N.ar    1  UNL1       -0.2900
      8 C         142.9008  141.0671  160.4686 C.ar    1  UNL1        0.0891
      9 C         143.2983  142.0358  159.3945 C.ar    1  UNL1        0.1098
     10 C         142.6552  143.3894  159.3299 C.ar    1  UNL1        0.2043
     11 O         143.0527  144.3581  158.2558 O.2     1  UNL1       -0.2863
     12 C         141.6147  143.7744  160.3395 C.ar    1  UNL1        0.0736
     13 C         140.9717  145.1280  160.2749 C.ar    1  UNL1        0.0078
     14 C         139.9312  145.5129  161.2844 C.ar    1  UNL1        0.0209
     15 C         139.5337  144.5443  162.3585 C.ar    1  UNL1        0.1005
     16 N         140.1767  143.1907  162.4231 N.ar    1  UNL1       -0.2263
     17 C         141.2172  142.8057  161.4136 C.ar    1  UNL1        0.1507
     18 C         144.3388  141.6508  158.3850 C.2     1  UNL1        0.2504
     19 O         144.4525  140.2256  157.9313 O.2     1  UNL1       -0.2700
     20 N         145.2656  142.6910  157.8292 N.am    1  UNL1       -0.3024
     21 H         145.1910  143.6264  158.1270 H       1  UNL1        0.1497
     22 C         146.3061  142.3060  156.8197 C.3     1  UNL1        0.0720
     23 C         146.7107  141.5260  155.6040 C.3     1  UNL1        0.0213
     24 C         147.7037  142.4191  156.2869 C.3     1  UNL1        0.0213
     25 C         140.7913  141.3193  169.3420 C.ar    1  UNL1        0.2373
     26 C         141.8896  141.8175  168.4500 C.ar    1  UNL1        0.0683
     27 C         141.9581  141.3664  167.0211 C.ar    1  UNL1        0.0120
     28 C         140.9283  140.4170  166.4842 C.ar    1  UNL1        0.0712
     29 C         139.8301  139.9188  167.3761 C.ar    1  UNL1        0.3012
     30 N         139.7615  140.3699  168.8050 N.ar    1  UNL1       -0.1587
     31 O         138.6633  139.8717  169.6969 O.co2   1  UNL1       -0.6190
     32 C         141.6169  140.6349  171.1722 C.3     1  UNL1        0.0403
     33 C         140.7228  141.7704  170.7709 C.3     1  UNL1        0.1664
     34 C         139.8287  142.9060  170.3695 C.3     1  UNL1        0.0403
     35 O         140.6542  142.2216  172.1998 O.3     1  UNL1       -0.3767
     36 H         141.1846  141.6266  172.7526 H       1  UNL1        0.2109
@<TRIPOS>UNITY_ATOM_ATTR
30 1
charge 1
31 1
charge -1
@<TRIPOS>BOND
     1    32    33    1
     2    33    34    1
     3    33    35    1
     4    33    25    1
     5    25    26   ar
     6    26    27   ar
     7    27    28   ar
     8    28     1    1
     9     1     2   ar
    10     2     3   ar
    11     3     4   ar
    12     4     5   ar
    13     5     7    1
    14     7     8   ar
    15     8     9   ar
    16     9    18    1
    17    18    19    2
    18    18    20   am
    19    20    22    1
    20    22    23    1
    21    23    24    1
    22     9    10   ar
    23    10    11    2
    24    10    12   ar
    25    12    13   ar
    26    13    14   ar
    27    14    15   ar
    28    15    16   ar
    29    16    17   ar
    30     5     6   ar
    31    28    29   ar
    32    29    30   ar
    33    30    31    1
    34    30    25   ar
    35     6     1   ar
    36    17     7   ar
    37    24    22    1
    38    17    12   ar
    39    35    36    1
    40    20    21    1
@<TRIPOS>MOLECULE
*****
 36 40 0 0 0
SMALL
GASTEIGER

@<TRIPOS>ATOM
      1 C         143.3319  142.0617  164.7361 C.ar    1  UNL1        0.0074
      2 C         144.8299  142.1191  164.6844 C.ar    1  UNL1        0.0003
      3 C         145.5405  141.9887  163.3698 C.ar    1  UNL1        0.0015
      4 C         144.7530  141.8008  162.1070 C.ar    1  UNL1        0.0176
      5 C         143.2551  141.7434  162.1587 C.ar    1  UNL1        0.0654
      6 C         142.5444  141.8738  163.4733 C.ar    1  UNL1        0.0178
      7 N         142.4676  141.5555  160.8959 N.ar    1  UNL1       -0.2900
      8 C         142.4038  140.2053  160.2457 C.ar    1  UNL1        0.0891
      9 C         141.6164  140.0175  158.9829 C.ar    1  UNL1        0.1098
     10 C         140.8928  141.1798  158.3703 C.ar    1  UNL1        0.2043
     11 O         140.1054  140.9920  157.1075 O.2     1  UNL1       -0.2863
     12 C         140.9566  142.5301  159.0206 C.ar    1  UNL1        0.0736
     13 C         140.2330  143.6925  158.4080 C.ar    1  UNL1        0.0078
     14 C         140.2968  145.0427  159.0582 C.ar    1  UNL1        0.0209
     15 C         141.0843  145.2305  160.3210 C.ar    1  UNL1        0.1005
     16 N         141.8078  144.0682  160.9336 N.ar    1  UNL1       -0.2263
     17 C         141.7440  142.7180  160.2834 C.ar    1  UNL1        0.1507
     18 C         141.5526  138.6672  158.3327 C.2     1  UNL1        0.2504
     19 O         140.2311  137.9780  158.1634 O.2     1  UNL1       -0.2700
     20 N         142.8102  138.0062  157.8518 N.am    1  UNL1       -0.3024
     21 H         143.6776  138.4585  157.9629 H       1  UNL1        0.1497
     22 C         142.7464  136.6560  157.2016 C.3     1  UNL1        0.0720
     23 C         143.2691  135.2574  157.0578 C.3     1  UNL1        0.0213
     24 C         142.1131  135.7159  156.2192 C.3     1  UNL1        0.0213
     25 C         141.2001  142.4529  168.6798 C.ar    1  UNL1        0.2373
     26 C         140.4163  142.2070  167.4247 C.ar    1  UNL1        0.0683
     27 C         141.1270  142.0766  166.1101 C.ar    1  UNL1        0.0120
     28 C         142.6213  142.1921  166.0507 C.ar    1  UNL1        0.0712
     29 C         143.4051  142.4379  167.3058 C.ar    1  UNL1        0.3012
     30 N         142.6945  142.5684  168.6203 N.ar    1  UNL1       -0.1587
     31 O         143.4783  142.8142  169.8754 O.co2   1  UNL1       -0.6190
     32 C         140.4367  144.0720  169.8181 C.3     1  UNL1        0.0403
     33 C         140.4896  142.5833  169.9943 C.3     1  UNL1        0.1664
     34 C         140.5425  141.0947  170.1706 C.3     1  UNL1        0.0403
     35 O         139.7790  142.7137  171.3090 O.3     1  UNL1       -0.3767
     36 H         139.5935  143.6494  171.4849 H       1  UNL1        0.2109
@<TRIPOS>UNITY_ATOM_ATTR
30 1
charge 1
31 1
charge -1
@<TRIPOS>BOND
     1    32    33    1
     2    33    34    1
     3    33    35    1
     4    33    25    1
     5    25    26   ar
     6    26    27   ar
     7    27    28   ar
     8    28     1    1
     9     1     2   ar
    10     2     3   ar
    11     3     4   ar
    12     4     5   ar
    13     5     7    1
    14     7     8   ar
    15     8     9   ar
    16     9    18    1
    17    18    19    2
    18    18    20   am
    19    20    22    1
    20    22    23    1
    21    23    24    1
    22     9    10   ar
    23    10    11    2
    24    10    12   ar
    25    12    13   ar
    26    13    14   ar
    27    14    15   ar
    28    15    16   ar
    29    16    17   ar
    30     5     6   ar
    31    28    29   ar
    32    29    30   ar
    33    30    31    1
    34    30    25   ar
    35     6     1   ar
    36    17     7   ar
    37    24    22    1
    38    17    12   ar
    39    35    36    1
    40    20    21    1
@<TRIPOS>MOLECULE
*****
 36 40 0 0 0
SMALL
GASTEIGER

@<TRIPOS>ATOM
      1 C         139.4836  141.4404  165.0102 C.ar    1  UNL1        0.0074
      2 C         137.9990  141.3710  164.8075 C.ar    1  UNL1        0.0003
      3 C         137.4210  141.5376  163.4334 C.ar    1  UNL1        0.0015
      4 C         138.3276  141.7734  162.2619 C.ar    1  UNL1        0.0176
      5 C         139.8122  141.8428  162.4645 C.ar    1  UNL1        0.0654
      6 C         140.3903  141.6763  163.8387 C.ar    1  UNL1        0.0178
      7 N         140.7188  142.0787  161.2930 N.ar    1  UNL1       -0.2900
      8 C         140.5304  143.2918  160.4312 C.ar    1  UNL1        0.0891
      9 C         141.4371  143.5277  159.2597 C.ar    1  UNL1        0.1098
     10 C         142.5320  142.5505  158.9500 C.ar    1  UNL1        0.2043
     11 O         143.4387  142.7863  157.7785 O.2     1  UNL1       -0.2863
     12 C         142.7205  141.3372  159.8119 C.ar    1  UNL1        0.0736
     13 C         143.8154  140.3600  159.5022 C.ar    1  UNL1        0.0078
     14 C         144.0038  139.1469  160.3640 C.ar    1  UNL1        0.0209
     15 C         143.0972  138.9110  161.5355 C.ar    1  UNL1        0.1005
     16 N         142.0022  139.8882  161.8452 N.ar    1  UNL1       -0.2263
     17 C         141.8138  141.1014  160.9834 C.ar    1  UNL1        0.1507
     18 C         141.2486  144.7409  158.3979 C.2     1  UNL1        0.2504
     19 O         142.2380  145.8666  158.4609 O.2     1  UNL1       -0.2700
     20 N         140.0709  144.8284  157.4731 N.am    1  UNL1       -0.3024
     21 H         139.4216  144.0895  157.4317 H       1  UNL1        0.1497
     22 C         139.8825  146.0415  156.6113 C.3     1  UNL1        0.0720
     23 C         139.1546  147.3166  156.3044 C.3     1  UNL1        0.0213
     24 C         140.2843  146.8677  155.4256 C.3     1  UNL1        0.0213
     25 C         141.2176  140.9407  169.1325 C.ar    1  UNL1        0.2373
     26 C         140.0058  140.1546  168.7283 C.ar    1  UNL1        0.0683
     27 C         139.4278  140.3212  167.3541 C.ar    1  UNL1        0.0120
     28 C         140.0616  141.2738  166.3843 C.ar    1  UNL1        0.0712
     29 C         141.2735  142.0600  166.7885 C.ar    1  UNL1        0.3012
     30 N         141.8515  141.8934  168.1626 N.ar    1  UNL1       -0.1587
     31 O         143.0633  142.6795  168.5668 O.co2   1  UNL1       -0.6190
     32 C         140.9662  141.9247  170.9949 C.3     1  UNL1        0.0403
     33 C         141.7956  140.7742  170.5066 C.3     1  UNL1        0.1664
     34 C         142.6250  139.6237  170.0183 C.3     1  UNL1        0.0403
     35 O         142.3737  140.6076  171.8807 O.3     1  UNL1       -0.3767
     36 H         141.9926  141.2732  172.4747 H       1  UNL1        0.2109
@<TRIPOS>UNITY_ATOM_ATTR
30 1
charge 1
31 1
charge -1
@<TRIPOS>BOND
     1    32    33    1
     2    33    34    1
     3    33    35    1
     4    33    25    1
     5    25    26   ar
     6    26    27   ar
     7    27    28   ar
     8    28     1    1
     9     1     2   ar
    10     2     3   ar
    11     3     4   ar
    12     4     5   ar
    13     5     7    1
    14     7     8   ar
    15     8     9   ar
    16     9    18    1
    17    18    19    2
    18    18    20   am
    19    20    22    1
    20    22    23    1
    21    23    24    1
    22     9    10   ar
    23    10    11    2
    24    10    12   ar
    25    12    13   ar
    26    13    14   ar
    27    14    15   ar
    28    15    16   ar
    29    16    17   ar
    30     5     6   ar
    31    28    29   ar
    32    29    30   ar
    33    30    31    1
    34    30    25   ar
    35     6     1   ar
    36    17     7   ar
    37    24    22    1
    38    17    12   ar
    39    35    36    1
    40    20    21    1
@<TRIPOS>MOLECULE
*****
 36 40 0 0 0
SMALL
GASTEIGER

@<TRIPOS>ATOM
      1 C         143.0334  142.2167  164.7504 C.ar    1  UNL1        0.0074
      2 C         144.5120  142.2093  164.4976 C.ar    1  UNL1        0.0003
      3 C         145.0322  142.1822  163.0910 C.ar    1  UNL1        0.0015
      4 C         144.0740  142.1626  161.9372 C.ar    1  UNL1        0.0176
      5 C         142.5955  142.1700  162.1899 C.ar    1  UNL1        0.0654
      6 C         142.0752  142.1971  163.5965 C.ar    1  UNL1        0.0178
      7 N         141.6373  142.1503  161.0360 N.ar    1  UNL1       -0.2900
      8 C         141.3597  143.4098  160.2701 C.ar    1  UNL1        0.0891
      9 C         140.4014  143.3902  159.1163 C.ar    1  UNL1        0.1098
     10 C         139.7208  142.1111  158.7283 C.ar    1  UNL1        0.2043
     11 O         138.7626  142.0914  157.5744 O.2     1  UNL1       -0.2863
     12 C         139.9984  140.8515  159.4942 C.ar    1  UNL1        0.0736
     13 C         139.3177  139.5724  159.1063 C.ar    1  UNL1        0.0078
     14 C         139.5953  138.3129  159.8722 C.ar    1  UNL1        0.0209
     15 C         140.5536  138.3326  161.0260 C.ar    1  UNL1        0.1005
     16 N         141.2342  139.6117  161.4140 N.ar    1  UNL1       -0.2263
     17 C         140.9566  140.8711  160.6481 C.ar    1  UNL1        0.1507
     18 C         140.1239  144.6497  158.3504 C.2     1  UNL1        0.2504
     19 O         139.8737  145.9339  159.0840 O.2     1  UNL1       -0.2700
     20 N         140.0964  144.6250  156.8508 N.am    1  UNL1       -0.3024
     21 H         140.2606  143.7822  156.3693 H       1  UNL1        0.1497
     22 C         139.8189  145.8845  156.0850 C.3     1  UNL1        0.0720
     23 C         140.2848  146.9778  155.1699 C.3     1  UNL1        0.0213
     24 C         138.8720  146.9728  155.6737 C.3     1  UNL1        0.0213
     25 C         141.4725  142.2980  168.9702 C.ar    1  UNL1        0.2373
     26 C         140.5353  142.0359  167.8288 C.ar    1  UNL1        0.0683
     27 C         141.0556  142.0088  166.4221 C.ar    1  UNL1        0.0120
     28 C         142.5131  142.2438  166.1570 C.ar    1  UNL1        0.0712
     29 C         143.4504  142.5058  167.2984 C.ar    1  UNL1        0.3012
     30 N         142.9301  142.5329  168.7050 N.ar    1  UNL1       -0.1587
     31 O         143.8674  142.7950  169.8465 O.co2   1  UNL1       -0.6190
     32 C         140.4778  143.7335  170.1742 C.3     1  UNL1        0.0403
     33 C         140.9523  142.3250  170.3768 C.3     1  UNL1        0.1664
     34 C         141.4267  140.9166  170.5794 C.3     1  UNL1        0.0403
     35 O         140.4320  142.3521  171.7835 O.3     1  UNL1       -0.3767
     36 H         140.0305  143.2166  171.9632 H       1  UNL1        0.2109
@<TRIPOS>UNITY_ATOM_ATTR
30 1
charge 1
31 1
charge -1
@<TRIPOS>BOND
     1    32    33    1
     2    33    34    1
     3    33    35    1
     4    33    25    1
     5    25    26   ar
     6    26    27   ar
     7    27    28   ar
     8    28     1    1
     9     1     2   ar
    10     2     3   ar
    11     3     4   ar
    12     4     5   ar
    13     5     7    1
    14     7     8   ar
    15     8     9   ar
    16     9    18    1
    17    18    19    2
    18    18    20   am
    19    20    22    1
    20    22    23    1
    21    23    24    1
    22     9    10   ar
    23    10    11    2
    24    10    12   ar
    25    12    13   ar
    26    13    14   ar
    27    14    15   ar
    28    15    16   ar
    29    16    17   ar
    30     5     6   ar
    31    28    29   ar
    32    29    30   ar
    33    30    31    1
    34    30    25   ar
    35     6     1   ar
    36    17     7   ar
    37    24    22    1
    38    17    12   ar
    39    35    36    1
    40    20    21    1
@<TRIPOS>MOLECULE
*****
 36 40 0 0 0
SMALL
GASTEIGER

@<TRIPOS>ATOM
      1 C         139.4351  141.1252  164.8723 C.ar    1  UNL1        0.0074
      2 C         137.9548  141.2939  164.6983 C.ar    1  UNL1        0.0003
      3 C         137.3690  141.4031  163.3218 C.ar    1  UNL1        0.0015
      4 C         138.2635  141.3437  162.1192 C.ar    1  UNL1        0.0176
      5 C         139.7438  141.1750  162.2931 C.ar    1  UNL1        0.0654
      6 C         140.3296  141.0657  163.6696 C.ar    1  UNL1        0.0178
      7 N         140.6383  141.1155  161.0904 N.ar    1  UNL1       -0.2900
      8 C         141.1387  139.7920  160.5926 C.ar    1  UNL1        0.0891
      9 C         142.0332  139.7325  159.3900 C.ar    1  UNL1        0.1098
     10 C         142.4273  140.9966  158.6851 C.ar    1  UNL1        0.2043
     11 O         143.3217  140.9371  157.4825 O.2     1  UNL1       -0.2863
     12 C         141.9268  142.3202  159.1829 C.ar    1  UNL1        0.0736
     13 C         142.3208  143.5842  158.4780 C.ar    1  UNL1        0.0078
     14 C         141.8203  144.9077  158.9758 C.ar    1  UNL1        0.0209
     15 C         140.9259  144.9672  160.1784 C.ar    1  UNL1        0.1005
     16 N         140.5318  143.7031  160.8833 N.ar    1  UNL1       -0.2263
     17 C         141.0323  142.3796  160.3855 C.ar    1  UNL1        0.1507
     18 C         142.5337  138.4089  158.8923 C.2     1  UNL1        0.2504
     19 O         143.0586  137.3925  159.8626 O.2     1  UNL1       -0.2700
     20 N         142.5093  138.1018  157.4243 N.am    1  UNL1       -0.3024
     21 H         142.1648  138.7688  156.7874 H       1  UNL1        0.1497
     22 C         143.0097  136.7782  156.9266 C.3     1  UNL1        0.0720
     23 C         143.8109  135.9792  155.9419 C.3     1  UNL1        0.0213
     24 C         143.0754  135.2847  157.0494 C.3     1  UNL1        0.0213
     25 C         141.1925  140.7975  169.0020 C.ar    1  UNL1        0.2373
     26 C         139.9487  140.0349  168.6535 C.ar    1  UNL1        0.0683
     27 C         139.3629  140.1442  167.2769 C.ar    1  UNL1        0.0120
     28 C         140.0209  141.0160  166.2488 C.ar    1  UNL1        0.0712
     29 C         141.2647  141.7785  166.5973 C.ar    1  UNL1        0.3012
     30 N         141.8505  141.6693  167.9738 N.ar    1  UNL1       -0.1587
     31 O         143.0943  142.4319  168.3223 O.co2   1  UNL1       -0.6190
     32 C         142.5742  139.4931  169.9449 C.3     1  UNL1        0.0403
     33 C         141.7783  140.6883  170.3785 C.3     1  UNL1        0.1664
     34 C         140.9823  141.8834  170.8120 C.3     1  UNL1        0.0403
     35 O         142.3641  140.5791  171.7551 O.3     1  UNL1       -0.3767
     36 H         142.9756  139.8269  171.7875 H       1  UNL1        0.2109
@<TRIPOS>UNITY_ATOM_ATTR
30 1
charge 1
31 1
charge -1
@<TRIPOS>BOND
     1    32    33    1
     2    33    34    1
     3    33    35    1
     4    33    25    1
     5    25    26   ar
     6    26    27   ar
     7    27    28   ar
     8    28     1    1
     9     1     2   ar
    10     2     3   ar
    11     3     4   ar
    12     4     5   ar
    13     5     7    1
    14     7     8   ar
    15     8     9   ar
    16     9    18    1
    17    18    19    2
    18    18    20   am
    19    20    22    1
    20    22    23    1
    21    23    24    1
    22     9    10   ar
    23    10    11    2
    24    10    12   ar
    25    12    13   ar
    26    13    14   ar
    27    14    15   ar
    28    15    16   ar
    29    16    17   ar
    30     5     6   ar
    31    28    29   ar
    32    29    30   ar
    33    30    31    1
    34    30    25   ar
    35     6     1   ar
    36    17     7   ar
    37    24    22    1
    38    17    12   ar
    39    35    36    1
    40    20    21    1
@<TRIPOS>MOLECULE
*****
 36 40 0 0 0
SMALL
GASTEIGER

@<TRIPOS>ATOM
      1 C         140.3727  139.2769  165.2320 C.ar    1  UNL1        0.0074
      2 C         139.2212  138.3247  165.1000 C.ar    1  UNL1        0.0003
      3 C         138.9299  137.6787  163.7780 C.ar    1  UNL1        0.0015
      4 C         139.7902  137.9848  162.5880 C.ar    1  UNL1        0.0176
      5 C         140.9417  138.9369  162.7199 C.ar    1  UNL1        0.0654
      6 C         141.2330  139.5830  164.0420 C.ar    1  UNL1        0.0178
      7 N         141.8019  139.2430  161.5298 N.ar    1  UNL1       -0.2900
      8 C         141.7710  138.3426  160.3306 C.ar    1  UNL1        0.0891
      9 C         142.6312  138.6487  159.1405 C.ar    1  UNL1        0.1098
     10 C         143.5224  139.8552  159.1497 C.ar    1  UNL1        0.2043
     11 O         144.3827  140.1613  157.9596 O.2     1  UNL1       -0.2863
     12 C         143.5534  140.7557  160.3490 C.ar    1  UNL1        0.0736
     13 C         144.4446  141.9622  160.3582 C.ar    1  UNL1        0.0078
     14 C         144.4755  142.8625  161.5574 C.ar    1  UNL1        0.0209
     15 C         143.6152  142.5565  162.7475 C.ar    1  UNL1        0.1005
     16 N         142.7241  141.3500  162.7383 N.ar    1  UNL1       -0.2263
     17 C         142.6931  140.4496  161.5391 C.ar    1  UNL1        0.1507
     18 C         142.6003  137.7482  157.9412 C.2     1  UNL1        0.2504
     19 O         141.9464  138.2106  156.6728 O.2     1  UNL1       -0.2700
     20 N         143.2232  136.3854  158.0103 N.am    1  UNL1       -0.3024
     21 H         143.6523  136.0819  158.8427 H       1  UNL1        0.1497
     22 C         143.1922  135.4850  156.8110 C.3     1  UNL1        0.0720
     23 C         142.6079  134.3111  156.0827 C.3     1  UNL1        0.0213
     24 C         143.7229  135.0994  155.4620 C.3     1  UNL1        0.0213
     25 C         141.2465  141.2151  169.1981 C.ar    1  UNL1        0.2373
     26 C         142.2868  141.2159  168.1175 C.ar    1  UNL1        0.0683
     27 C         141.9955  140.5698  166.7955 C.ar    1  UNL1        0.0120
     28 C         140.6640  139.9229  166.5541 C.ar    1  UNL1        0.0712
     29 C         139.6236  139.9221  167.6346 C.ar    1  UNL1        0.3012
     30 N         139.9148  140.5681  168.9567 N.ar    1  UNL1       -0.1587
     31 O         138.8745  140.5672  170.0372 O.co2   1  UNL1       -0.6190
     32 C         142.0860  140.5628  171.0338 C.3     1  UNL1        0.0403
     33 C         141.5377  141.8611  170.5201 C.3     1  UNL1        0.1664
     34 C         140.9895  143.1594  170.0065 C.3     1  UNL1        0.0403
     35 O         141.8290  142.5072  171.8422 O.3     1  UNL1       -0.3767
     36 H         142.2260  141.8550  172.4404 H       1  UNL1        0.2109
@<TRIPOS>UNITY_ATOM_ATTR
30 1
charge 1
31 1
charge -1
@<TRIPOS>BOND
     1    32    33    1
     2    33    34    1
     3    33    35    1
     4    33    25    1
     5    25    26   ar
     6    26    27   ar
     7    27    28   ar
     8    28     1    1
     9     1     2   ar
    10     2     3   ar
    11     3     4   ar
    12     4     5   ar
    13     5     7    1
    14     7     8   ar
    15     8     9   ar
    16     9    18    1
    17    18    19    2
    18    18    20   am
    19    20    22    1
    20    22    23    1
    21    23    24    1
    22     9    10   ar
    23    10    11    2
    24    10    12   ar
    25    12    13   ar
    26    13    14   ar
    27    14    15   ar
    28    15    16   ar
    29    16    17   ar
    30     5     6   ar
    31    28    29   ar
    32    29    30   ar
    33    30    31    1
    34    30    25   ar
    35     6     1   ar
    36    17     7   ar
    37    24    22    1
    38    17    12   ar
    39    35    36    1
    40    20    21    1
@<TRIPOS>MOLECULE
*****
 36 40 0 0 0
SMALL
GASTEIGER

@<TRIPOS>ATOM
      1 C         143.0581  141.6608  164.8979 C.ar    1  UNL1        0.0074
      2 C         144.4603  142.1135  164.6167 C.ar    1  UNL1        0.0003
      3 C         145.0503  141.9230  163.2509 C.ar    1  UNL1        0.0015
      4 C         144.2381  141.2798  162.1661 C.ar    1  UNL1        0.0176
      5 C         142.8360  140.8271  162.4472 C.ar    1  UNL1        0.0654
      6 C         142.2459  141.0176  163.8132 C.ar    1  UNL1        0.0178
      7 N         142.0238  140.1839  161.3625 N.ar    1  UNL1       -0.2900
      8 C         142.7096  139.5285  160.2005 C.ar    1  UNL1        0.0891
      9 C         141.8974  138.8853  159.1158 C.ar    1  UNL1        0.1098
     10 C         140.3995  138.8974  159.1930 C.ar    1  UNL1        0.2043
     11 O         139.5873  138.2542  158.1083 O.2     1  UNL1       -0.2863
     12 C         139.7136  139.5528  160.3550 C.ar    1  UNL1        0.0736
     13 C         138.2157  139.5649  160.4322 C.ar    1  UNL1        0.0078
     14 C         137.5299  140.2202  161.5942 C.ar    1  UNL1        0.0209
     15 C         138.3421  140.8634  162.6790 C.ar    1  UNL1        0.1005
     16 N         139.8400  140.8513  162.6017 N.ar    1  UNL1       -0.2263
     17 C         140.5258  140.1960  161.4398 C.ar    1  UNL1        0.1507
     18 C         142.5833  138.2300  157.9538 C.2     1  UNL1        0.2504
     19 O         143.7268  138.9203  157.2713 O.2     1  UNL1       -0.2700
     20 N         142.1256  136.8844  157.4743 N.am    1  UNL1       -0.3024
     21 H         141.3750  136.4313  157.9223 H       1  UNL1        0.1497
     22 C         142.8114  136.2291  156.3124 C.3     1  UNL1        0.0720
     23 C         142.7432  135.4168  155.0533 C.3     1  UNL1        0.0213
     24 C         144.0677  135.9065  155.5589 C.3     1  UNL1        0.0213
     25 C         141.2881  142.2323  168.9955 C.ar    1  UNL1        0.2373
     26 C         140.4168  141.7913  167.8570 C.ar    1  UNL1        0.0683
     27 C         141.0068  141.6008  166.4911 C.ar    1  UNL1        0.0120
     28 C         142.4681  141.8513  166.2638 C.ar    1  UNL1        0.0712
     29 C         143.3395  142.2924  167.4023 C.ar    1  UNL1        0.3012
     30 N         142.7495  142.4829  168.7681 N.ar    1  UNL1       -0.1587
     31 O         143.6209  142.9239  169.9066 O.co2   1  UNL1       -0.6190
     32 C         141.0564  141.0094  170.7132 C.3     1  UNL1        0.0403
     33 C         140.6982  142.4228  170.3614 C.3     1  UNL1        0.1664
     34 C         140.3400  143.8363  170.0095 C.3     1  UNL1        0.0403
     35 O         140.1082  142.6134  171.7273 O.3     1  UNL1       -0.3767
     36 H         140.1994  141.7927  172.2363 H       1  UNL1        0.2109
@<TRIPOS>UNITY_ATOM_ATTR
30 1
charge 1
31 1
charge -1
@<TRIPOS>BOND
     1    32    33    1
     2    33    34    1
     3    33    35    1
     4    33    25    1
     5    25    26   ar
     6    26    27   ar
     7    27    28   ar
     8    28     1    1
     9     1     2   ar
    10     2     3   ar
    11     3     4   ar
    12     4     5   ar
    13     5     7    1
    14     7     8   ar
    15     8     9   ar
    16     9    18    1
    17    18    19    2
    18    18    20   am
    19    20    22    1
    20    22    23    1
    21    23    24    1
    22     9    10   ar
    23    10    11    2
    24    10    12   ar
    25    12    13   ar
    26    13    14   ar
    27    14    15   ar
    28    15    16   ar
    29    16    17   ar
    30     5     6   ar
    31    28    29   ar
    32    29    30   ar
    33    30    31    1
    34    30    25   ar
    35     6     1   ar
    36    17     7   ar
    37    24    22    1
    38    17    12   ar
    39    35    36    1
    40    20    21    1
@<TRIPOS>MOLECULE
*****
 36 40 0 0 0
SMALL
GASTEIGER

@<TRIPOS>ATOM
      1 C         139.7079  139.5982  165.1407 C.ar    1  UNL1        0.0074
      2 C         139.2990  138.1617  165.0008 C.ar    1  UNL1        0.0003
      3 C         138.8541  137.6349  163.6687 C.ar    1  UNL1        0.0015
      4 C         138.8179  138.5445  162.4765 C.ar    1  UNL1        0.0176
      5 C         139.2267  139.9809  162.6164 C.ar    1  UNL1        0.0654
      6 C         139.6717  140.5078  163.9485 C.ar    1  UNL1        0.0178
      7 N         139.1905  140.8905  161.4242 N.ar    1  UNL1       -0.2900
      8 C         138.5141  140.4455  160.1615 C.ar    1  UNL1        0.0891
      9 C         138.4779  141.3551  158.9693 C.ar    1  UNL1        0.1098
     10 C         139.1182  142.7097  159.0398 C.ar    1  UNL1        0.2043
     11 O         139.0820  143.6193  157.8476 O.2     1  UNL1       -0.2863
     12 C         139.7947  143.1548  160.3025 C.ar    1  UNL1        0.0736
     13 C         140.4349  144.5094  160.3729 C.ar    1  UNL1        0.0078
     14 C         141.1114  144.9544  161.6355 C.ar    1  UNL1        0.0209
     15 C         141.1476  144.0448  162.8278 C.ar    1  UNL1        0.1005
     16 N         140.5073  142.6902  162.7573 N.ar    1  UNL1       -0.2263
     17 C         139.8308  142.2452  161.4947 C.ar    1  UNL1        0.1507
     18 C         137.8014  140.9100  157.7066 C.2     1  UNL1        0.2504
     19 O         138.1942  139.6137  157.0622 O.2     1  UNL1       -0.2700
     20 N         136.7321  141.7611  157.0885 N.am    1  UNL1       -0.3024
     21 H         136.4743  142.6119  157.5115 H       1  UNL1        0.1497
     22 C         136.0557  141.3160  155.8259 C.3     1  UNL1        0.0720
     23 C         136.1380  140.7756  154.4291 C.3     1  UNL1        0.0213
     24 C         134.8017  141.0854  155.0358 C.3     1  UNL1        0.0213
     25 C         141.0428  141.1786  169.1370 C.ar    1  UNL1        0.2373
     26 C         139.8027  140.3406  169.0381 C.ar    1  UNL1        0.0683
     27 C         139.3577  139.8138  167.7059 C.ar    1  UNL1        0.0120
     28 C         140.1528  140.1250  166.4727 C.ar    1  UNL1        0.0712
     29 C         141.3930  140.9631  166.5716 C.ar    1  UNL1        0.3012
     30 N         141.8379  141.4899  167.9037 N.ar    1  UNL1       -0.1587
     31 O         143.0780  142.3280  168.0025 O.co2   1  UNL1       -0.6190
     32 C         140.6289  142.9199  170.2756 C.3     1  UNL1        0.0403
     33 C         141.4877  141.7054  170.4690 C.3     1  UNL1        0.1664
     34 C         142.3466  140.4910  170.6624 C.3     1  UNL1        0.0403
     35 O         141.9328  142.2322  171.8012 O.3     1  UNL1       -0.3767
     36 H         141.5051  143.0863  171.9704 H       1  UNL1        0.2109
@<TRIPOS>UNITY_ATOM_ATTR
30 1
charge 1
31 1
charge -1
@<TRIPOS>BOND
     1    32    33    1
     2    33    34    1
     3    33    35    1
     4    33    25    1
     5    25    26   ar
     6    26    27   ar
     7    27    28   ar
     8    28     1    1
     9     1     2   ar
    10     2     3   ar
    11     3     4   ar
    12     4     5   ar
    13     5     7    1
    14     7     8   ar
    15     8     9   ar
    16     9    18    1
    17    18    19    2
    18    18    20   am
    19    20    22    1
    20    22    23    1
    21    23    24    1
    22     9    10   ar
    23    10    11    2
    24    10    12   ar
    25    12    13   ar
    26    13    14   ar
    27    14    15   ar
    28    15    16   ar
    29    16    17   ar
    30     5     6   ar
    31    28    29   ar
    32    29    30   ar
    33    30    31    1
    34    30    25   ar
    35     6     1   ar
    36    17     7   ar
    37    24    22    1
    38    17    12   ar
    39    35    36    1
    40    20    21    1
@<TRIPOS>MOLECULE
*****
 36 40 0 0 0
SMALL
GASTEIGER

@<TRIPOS>ATOM
      1 C         139.8349  142.7835  164.4241 C.ar    1  UNL1        0.0074
      2 C         139.8196  144.2817  164.3513 C.ar    1  UNL1        0.0003
      3 C         139.7509  144.9672  163.0189 C.ar    1  UNL1        0.0015
      4 C         139.6976  144.1546  161.7592 C.ar    1  UNL1        0.0176
      5 C         139.7130  142.6564  161.8319 C.ar    1  UNL1        0.0654
      6 C         139.7816  141.9709  163.1644 C.ar    1  UNL1        0.0178
      7 N         139.6597  141.8438  160.5722 N.ar    1  UNL1       -0.2900
      8 C         138.5593  142.0716  159.5787 C.ar    1  UNL1        0.0891
      9 C         138.5060  141.2590  158.3191 C.ar    1  UNL1        0.1098
     10 C         139.5532  140.2185  158.0529 C.ar    1  UNL1        0.2043
     11 O         139.4999  139.4059  156.7932 O.2     1  UNL1       -0.2863
     12 C         140.6537  139.9907  159.0464 C.ar    1  UNL1        0.0736
     13 C         141.7008  138.9502  158.7803 C.ar    1  UNL1        0.0078
     14 C         142.8012  138.7224  159.7738 C.ar    1  UNL1        0.0209
     15 C         142.8545  139.5350  161.0334 C.ar    1  UNL1        0.1005
     16 N         141.8074  140.5755  161.2996 N.ar    1  UNL1       -0.2263
     17 C         140.7069  140.8033  160.3061 C.ar    1  UNL1        0.1507
     18 C         137.4055  141.4869  157.3255 C.2     1  UNL1        0.2504
     19 O         137.1219  142.8722  156.8250 O.2     1  UNL1       -0.2700
     20 N         136.5886  140.3294  156.8325 N.am    1  UNL1       -0.3024
     21 H         136.7747  139.4202  157.1610 H       1  UNL1        0.1497
     22 C         135.4882  140.5573  155.8391 C.3     1  UNL1        0.0720
     23 C         134.2931  141.3395  155.3810 C.3     1  UNL1        0.0213
     24 C         134.7773  140.1699  154.5763 C.3     1  UNL1        0.0213
     25 C         140.0408  140.7269  168.4213 C.ar    1  UNL1        0.2373
     26 C         139.5645  139.9744  167.2143 C.ar    1  UNL1        0.0683
     27 C         139.4959  140.6600  165.8819 C.ar    1  UNL1        0.0120
     28 C         139.9035  142.0980  165.7565 C.ar    1  UNL1        0.0712
     29 C         140.3799  142.8505  166.9634 C.ar    1  UNL1        0.3012
     30 N         140.4485  142.1651  168.2958 N.ar    1  UNL1       -0.1587
     31 O         140.9248  142.9176  169.5028 O.co2   1  UNL1       -0.6190
     32 C         141.5444  139.6876  169.4977 C.3     1  UNL1        0.0403
     33 C         140.1094  140.0414  169.7537 C.3     1  UNL1        0.1664
     34 C         138.6745  140.3953  170.0097 C.3     1  UNL1        0.0403
     35 O         140.1780  139.3559  171.0862 O.3     1  UNL1       -0.3767
     36 H         141.0677  138.9924  171.2174 H       1  UNL1        0.2109
@<TRIPOS>UNITY_ATOM_ATTR
30 1
charge 1
31 1
charge -1
@<TRIPOS>BOND
     1    32    33    1
     2    33    34    1
     3    33    35    1
     4    33    25    1
     5    25    26   ar
     6    26    27   ar
     7    27    28   ar
     8    28     1    1
     9     1     2   ar
    10     2     3   ar
    11     3     4   ar
    12     4     5   ar
    13     5     7    1
    14     7     8   ar
    15     8     9   ar
    16     9    18    1
    17    18    19    2
    18    18    20   am
    19    20    22    1
    20    22    23    1
    21    23    24    1
    22     9    10   ar
    23    10    11    2
    24    10    12   ar
    25    12    13   ar
    26    13    14   ar
    27    14    15   ar
    28    15    16   ar
    29    16    17   ar
    30     5     6   ar
    31    28    29   ar
    32    29    30   ar
    33    30    31    1
    34    30    25   ar
    35     6     1   ar
    36    17     7   ar
    37    24    22    1
    38    17    12   ar
    39    35    36    1
    40    20    21    1
