@<TRIPOS>MOLECULE
*****
 32 35 0 0 0
SMALL
GASTEIGER

@<TRIPOS>ATOM
      1 N         143.8861  144.1677  162.2025 N.3     1  UNL1       -0.2932
      2 H         143.9826  144.1793  163.2178 H       1  UNL1        0.1234
      3 C         142.4385  144.4215  161.9023 C.3     1  UNL1        0.1020
      4 O         140.9210  146.2186  163.0056 O.3     1  UNL1       -0.3794
      5 C         141.5064  144.8376  163.0013 C.3     1  UNL1        0.1659
      6 H         141.2449  146.7095  162.2342 H       1  UNL1        0.2106
      7 C         141.1597  143.8726  164.0962 C.3     1  UNL1        0.1941
      8 C         139.7490  143.3859  164.2480 C.3     1  UNL1        0.0509
      9 C         139.4023  142.4210  165.3428 C.3     1  UNL1        0.0333
     10 C         140.4662  141.9427  166.2858 C.ar    1  UNL1        0.0141
     11 C         140.1195  140.9777  167.3807 C.ar    1  UNL1        0.0284
     12 C         141.1835  140.4995  168.3237 C.ar    1  UNL1        0.1400
     13 F         140.8368  139.5345  169.4185 F       1  UNL1       -0.2042
     14 C         142.5942  140.9862  168.1718 C.ar    1  UNL1        0.0327
     15 C         142.9409  141.9511  167.0770 C.ar    1  UNL1        0.0389
     16 C         141.8769  142.4294  166.1340 C.ar    1  UNL1        0.1346
     17 O         142.2237  143.3943  165.0392 O.3     1  UNL1       -0.4769
     18 C         144.5427  142.9084  161.7194 C.3     1  UNL1        0.1020
     19 C         145.0100  141.8801  162.7063 C.3     1  UNL1        0.1659
     20 O         146.4589  141.8110  163.0882 O.3     1  UNL1       -0.3794
     21 H         146.5902  141.0964  163.7309 H       1  UNL1        0.2106
     22 C         144.0283  140.9207  163.3115 C.3     1  UNL1        0.1941
     23 C         144.4667  139.9856  164.3993 C.3     1  UNL1        0.0509
     24 C         143.4850  139.0263  165.0043 C.3     1  UNL1        0.0333
     25 C         142.0650  139.0022  164.5216 C.ar    1  UNL1        0.0141
     26 C         141.0834  138.0428  165.1267 C.ar    1  UNL1        0.0284
     27 C         139.6634  138.0187  164.6439 C.ar    1  UNL1        0.1400
     28 F         138.6817  137.0594  165.2490 F       1  UNL1       -0.2042
     29 C         139.2250  138.9539  163.5561 C.ar    1  UNL1        0.0327
     30 C         140.2067  139.9132  162.9510 C.ar    1  UNL1        0.0389
     31 C         141.6267  139.9373  163.4338 C.ar    1  UNL1        0.1346
     32 O         142.6083  140.8966  162.8287 O.3     1  UNL1       -0.4769
@<TRIPOS>BOND
     1     4     5    1
     2     5     3    1
     3     3     1    1
     4     1    18    1
     5    18    19    1
     6    19    20    1
     7    19    22    1
     8    22    23    1
     9    23    24    1
    10    24    25    1
    11    25    26   ar
    12    26    27   ar
    13    27    28    1
    14    27    29   ar
    15    29    30   ar
    16    30    31   ar
    17    31    32    1
    18     5     7    1
    19     7     8    1
    20     8     9    1
    21     9    10    1
    22    10    11   ar
    23    11    12   ar
    24    12    13    1
    25    12    14   ar
    26    14    15   ar
    27    15    16   ar
    28    16    17    1
    29    32    22    1
    30    17     7    1
    31    31    25   ar
    32    16    10   ar
    33     4     6    1
    34     1     2    1
    35    20    21    1
@<TRIPOS>MOLECULE
*****
 32 35 0 0 0
SMALL
GASTEIGER

@<TRIPOS>ATOM
      1 N         143.9185  144.0282  161.8824 N.3     1  UNL1       -0.2932
      2 H         144.2894  144.7229  161.2342 H       1  UNL1        0.1234
      3 C         144.5767  142.7239  161.5424 C.3     1  UNL1        0.1020
      4 O         146.4489  141.8177  163.0992 O.3     1  UNL1       -0.3794
      5 C         145.0218  141.8006  162.6375 C.3     1  UNL1        0.1659
      6 H         146.9455  142.4774  162.5902 H       1  UNL1        0.2106
      7 C         144.0399  140.8601  163.2711 C.3     1  UNL1        0.1941
      8 C         144.4628  139.9992  164.4243 C.3     1  UNL1        0.0509
      9 C         143.4809  139.0587  165.0578 C.3     1  UNL1        0.0333
     10 C         142.0761  138.9793  164.5381 C.ar    1  UNL1        0.0141
     11 C         141.0941  138.0388  165.1717 C.ar    1  UNL1        0.0284
     12 C         139.6893  137.9593  164.6520 C.ar    1  UNL1        0.1400
     13 F         138.7073  137.0188  165.2856 F       1  UNL1       -0.2042
     14 C         139.2663  138.8203  163.4988 C.ar    1  UNL1        0.0327
     15 C         140.2482  139.7607  162.8653 C.ar    1  UNL1        0.0389
     16 C         141.6531  139.8402  163.3849 C.ar    1  UNL1        0.1346
     17 O         142.6350  140.7807  162.7514 O.3     1  UNL1       -0.4769
     18 C         142.4240  144.1483  161.8374 C.3     1  UNL1        0.1020
     19 C         141.6762  144.6584  163.0334 C.3     1  UNL1        0.1659
     20 O         141.3265  146.1136  163.1347 O.3     1  UNL1       -0.3794
     21 H         140.8478  146.2742  163.9629 H       1  UNL1        0.2106
     22 C         141.2781  143.7134  164.1282 C.3     1  UNL1        0.1941
     23 C         139.8657  143.2155  164.2125 C.3     1  UNL1        0.0509
     24 C         139.4677  142.2706  165.3073 C.3     1  UNL1        0.0333
     25 C         140.4821  141.8235  166.3178 C.ar    1  UNL1        0.0141
     26 C         140.0840  140.8785  167.4126 C.ar    1  UNL1        0.0284
     27 C         141.0984  140.4315  168.4231 C.ar    1  UNL1        0.1400
     28 F         140.7004  139.4865  169.5179 F       1  UNL1       -0.2042
     29 C         142.5109  140.9294  168.3388 C.ar    1  UNL1        0.0327
     30 C         142.9089  141.8743  167.2440 C.ar    1  UNL1        0.0389
     31 C         141.8945  142.3214  166.2335 C.ar    1  UNL1        0.1346
     32 O         142.2925  143.2664  165.1388 O.3     1  UNL1       -0.4769
@<TRIPOS>BOND
     1     4     5    1
     2     5     3    1
     3     3     1    1
     4     1    18    1
     5    18    19    1
     6    19    20    1
     7    19    22    1
     8    22    23    1
     9    23    24    1
    10    24    25    1
    11    25    26   ar
    12    26    27   ar
    13    27    28    1
    14    27    29   ar
    15    29    30   ar
    16    30    31   ar
    17    31    32    1
    18     5     7    1
    19     7     8    1
    20     8     9    1
    21     9    10    1
    22    10    11   ar
    23    11    12   ar
    24    12    13    1
    25    12    14   ar
    26    14    15   ar
    27    15    16   ar
    28    16    17    1
    29    32    22    1
    30    17     7    1
    31    31    25   ar
    32    16    10   ar
    33     4     6    1
    34     1     2    1
    35    20    21    1
@<TRIPOS>MOLECULE
*****
 32 35 0 0 0
SMALL
GASTEIGER

@<TRIPOS>ATOM
      1 N         139.5576  139.1370  161.8205 N.3     1  UNL1       -0.2932
      2 H         140.0566  140.0124  161.9789 H       1  UNL1        0.1234
      3 C         138.2193  139.2753  162.4836 C.3     1  UNL1        0.1020
      4 O         136.6358  141.2464  163.0815 O.3     1  UNL1       -0.3794
      5 C         137.9122  140.4912  163.3065 C.3     1  UNL1        0.1659
      6 H         136.1277  140.8191  162.3744 H       1  UNL1        0.2106
      7 C         138.8814  140.9519  164.3546 C.3     1  UNL1        0.1941
      8 C         138.9260  142.3979  164.7511 C.3     1  UNL1        0.0509
      9 C         139.8952  142.8586  165.7991 C.3     1  UNL1        0.0333
     10 C         140.8198  141.8734  166.4506 C.ar    1  UNL1        0.0141
     11 C         141.7890  142.3341  167.4987 C.ar    1  UNL1        0.0284
     12 C         142.7136  141.3489  168.1502 C.ar    1  UNL1        0.1400
     13 F         143.6828  141.8096  169.1983 F       1  UNL1       -0.2042
     14 C         142.6689  139.9030  167.7537 C.ar    1  UNL1        0.0327
     15 C         141.6998  139.4422  166.7057 C.ar    1  UNL1        0.0389
     16 C         140.7751  140.4275  166.0541 C.ar    1  UNL1        0.1346
     17 O         139.8060  139.9667  165.0061 O.3     1  UNL1       -0.4769
     18 C         140.4850  138.0302  162.2267 C.3     1  UNL1        0.1020
     19 C         141.9697  138.2263  162.1409 C.3     1  UNL1        0.1659
     20 O         142.8099  137.2601  161.3596 O.3     1  UNL1       -0.3794
     21 H         143.7404  137.5300  161.4058 H       1  UNL1        0.2106
     22 C         142.6141  139.3886  162.8365 C.3     1  UNL1        0.1941
     23 C         143.7828  139.1624  163.7491 C.3     1  UNL1        0.0509
     24 C         144.4272  140.3247  164.4447 C.3     1  UNL1        0.0333
     25 C         143.9029  141.7132  164.2276 C.ar    1  UNL1        0.0141
     26 C         144.5473  142.8755  164.9232 C.ar    1  UNL1        0.0284
     27 C         144.0230  144.2640  164.7061 C.ar    1  UNL1        0.1400
     28 F         144.6673  145.4263  165.4017 F       1  UNL1       -0.2042
     29 C         142.8542  144.4902  163.7935 C.ar    1  UNL1        0.0327
     30 C         142.2098  143.3279  163.0979 C.ar    1  UNL1        0.0389
     31 C         142.7341  141.9394  163.3150 C.ar    1  UNL1        0.1346
     32 O         142.0898  140.7771  162.6195 O.3     1  UNL1       -0.4769
@<TRIPOS>BOND
     1     4     5    1
     2     5     3    1
     3     3     1    1
     4     1    18    1
     5    18    19    1
     6    19    20    1
     7    19    22    1
     8    22    23    1
     9    23    24    1
    10    24    25    1
    11    25    26   ar
    12    26    27   ar
    13    27    28    1
    14    27    29   ar
    15    29    30   ar
    16    30    31   ar
    17    31    32    1
    18     5     7    1
    19     7     8    1
    20     8     9    1
    21     9    10    1
    22    10    11   ar
    23    11    12   ar
    24    12    13    1
    25    12    14   ar
    26    14    15   ar
    27    15    16   ar
    28    16    17    1
    29    32    22    1
    30    17     7    1
    31    31    25   ar
    32    16    10   ar
    33     4     6    1
    34     1     2    1
    35    20    21    1
@<TRIPOS>MOLECULE
*****
 32 35 0 0 0
SMALL
GASTEIGER

@<TRIPOS>ATOM
      1 N         139.0569  143.4211  161.1979 N.3     1  UNL1       -0.2932
      2 H         139.7409  142.7678  161.5796 H       1  UNL1        0.1234
      3 C         139.7519  144.7428  161.0575 C.3     1  UNL1        0.1020
      4 O         140.6616  146.6534  162.5650 O.3     1  UNL1       -0.3794
      5 C         140.6848  145.2174  162.1320 C.3     1  UNL1        0.1659
      6 H         139.9916  147.1343  162.0543 H       1  UNL1        0.2106
      7 C         141.6410  144.2560  162.7735 C.3     1  UNL1        0.1941
      8 C         142.5646  144.7276  163.8573 C.3     1  UNL1        0.0509
      9 C         143.5207  143.7663  164.4988 C.3     1  UNL1        0.0333
     10 C         143.5533  142.3334  164.0565 C.ar    1  UNL1        0.0141
     11 C         144.5095  141.3719  164.6980 C.ar    1  UNL1        0.0284
     12 C         144.5421  139.9390  164.2558 C.ar    1  UNL1        0.1400
     13 F         145.4983  138.9776  164.8973 F       1  UNL1       -0.2042
     14 C         143.6185  139.4675  163.1720 C.ar    1  UNL1        0.0327
     15 C         142.6624  140.4288  162.5304 C.ar    1  UNL1        0.0389
     16 C         142.6297  141.8618  162.9727 C.ar    1  UNL1        0.1346
     17 O         141.6736  142.8231  162.3312 O.3     1  UNL1       -0.4769
     18 C         137.8271  143.3070  162.0492 C.3     1  UNL1        0.1020
     19 C         137.7405  142.2431  163.1030 C.3     1  UNL1        0.1659
     20 O         136.6651  141.2000  163.0292 O.3     1  UNL1       -0.3794
     21 H         136.7508  140.5934  163.7812 H       1  UNL1        0.2106
     22 C         138.7294  142.2222  164.2308 C.3     1  UNL1        0.1941
     23 C         138.9790  143.4651  165.0325 C.3     1  UNL1        0.0509
     24 C         139.9678  143.4442  166.1602 C.3     1  UNL1        0.0333
     25 C         140.7071  142.1803  166.4861 C.ar    1  UNL1        0.0141
     26 C         141.6960  142.1594  167.6139 C.ar    1  UNL1        0.0284
     27 C         142.4352  140.8956  167.9398 C.ar    1  UNL1        0.1400
     28 F         143.4240  140.8747  169.0675 F       1  UNL1       -0.2042
     29 C         142.1855  139.6526  167.1380 C.ar    1  UNL1        0.0327
     30 C         141.1967  139.6736  166.0103 C.ar    1  UNL1        0.0389
     31 C         140.4575  140.9374  165.6844 C.ar    1  UNL1        0.1346
     32 O         139.4686  140.9584  164.5567 O.3     1  UNL1       -0.4769
@<TRIPOS>BOND
     1     4     5    1
     2     5     3    1
     3     3     1    1
     4     1    18    1
     5    18    19    1
     6    19    20    1
     7    19    22    1
     8    22    23    1
     9    23    24    1
    10    24    25    1
    11    25    26   ar
    12    26    27   ar
    13    27    28    1
    14    27    29   ar
    15    29    30   ar
    16    30    31   ar
    17    31    32    1
    18     5     7    1
    19     7     8    1
    20     8     9    1
    21     9    10    1
    22    10    11   ar
    23    11    12   ar
    24    12    13    1
    25    12    14   ar
    26    14    15   ar
    27    15    16   ar
    28    16    17    1
    29    32    22    1
    30    17     7    1
    31    31    25   ar
    32    16    10   ar
    33     4     6    1
    34     1     2    1
    35    20    21    1
@<TRIPOS>MOLECULE
*****
 32 35 0 0 0
SMALL
GASTEIGER

@<TRIPOS>ATOM
      1 N         140.1729  145.3538  163.6323 N.3     1  UNL1       -0.2932
      2 H         140.3890  144.6043  164.2895 H       1  UNL1        0.1234
      3 C         138.8129  145.0596  163.0720 C.3     1  UNL1        0.1020
      4 O         137.4871  143.1824  161.8603 O.3     1  UNL1       -0.3794
      5 C         138.3109  143.6470  163.0246 C.3     1  UNL1        0.1659
      6 H         137.3730  143.9133  161.2329 H       1  UNL1        0.2106
      7 C         138.6326  142.6988  164.1415 C.3     1  UNL1        0.1941
      8 C         138.0896  141.3007  164.1183 C.3     1  UNL1        0.0509
      9 C         138.4113  140.3525  165.2351 C.3     1  UNL1        0.0333
     10 C         139.2760  140.8024  166.3752 C.ar    1  UNL1        0.0141
     11 C         139.5977  139.8542  167.4922 C.ar    1  UNL1        0.0284
     12 C         140.4623  140.3041  168.6323 C.ar    1  UNL1        0.1400
     13 F         140.7841  139.3559  169.7492 F       1  UNL1       -0.2042
     14 C         141.0053  141.7021  168.6556 C.ar    1  UNL1        0.0327
     15 C         140.6836  142.6503  167.5387 C.ar    1  UNL1        0.0389
     16 C         139.8189  142.2005  166.3985 C.ar    1  UNL1        0.1346
     17 O         139.4973  143.1486  165.2817 O.3     1  UNL1       -0.4769
     18 C         141.3520  145.4772  162.7133 C.3     1  UNL1        0.1020
     19 C         142.6085  144.7090  162.9981 C.3     1  UNL1        0.1659
     20 O         143.9462  145.3535  162.7851 O.3     1  UNL1       -0.3794
     21 H         144.6482  144.7247  163.0147 H       1  UNL1        0.2106
     22 C         142.5273  143.2963  163.4959 C.3     1  UNL1        0.1941
     23 C         143.2407  142.9028  164.7553 C.3     1  UNL1        0.0509
     24 C         143.1595  141.4901  165.2531 C.3     1  UNL1        0.0333
     25 C         142.3650  140.4711  164.4914 C.ar    1  UNL1        0.0141
     26 C         142.2838  139.0583  164.9893 C.ar    1  UNL1        0.0284
     27 C         141.4892  138.0393  164.2276 C.ar    1  UNL1        0.1400
     28 F         141.4080  136.6266  164.7254 F       1  UNL1       -0.2042
     29 C         140.7758  138.4329  162.9682 C.ar    1  UNL1        0.0327
     30 C         140.8570  139.8455  162.4704 C.ar    1  UNL1        0.0389
     31 C         141.6516  140.8646  163.2321 C.ar    1  UNL1        0.1346
     32 O         141.7327  142.2773  162.7343 O.3     1  UNL1       -0.4769
@<TRIPOS>BOND
     1     4     5    1
     2     5     3    1
     3     3     1    1
     4     1    18    1
     5    18    19    1
     6    19    20    1
     7    19    22    1
     8    22    23    1
     9    23    24    1
    10    24    25    1
    11    25    26   ar
    12    26    27   ar
    13    27    28    1
    14    27    29   ar
    15    29    30   ar
    16    30    31   ar
    17    31    32    1
    18     5     7    1
    19     7     8    1
    20     8     9    1
    21     9    10    1
    22    10    11   ar
    23    11    12   ar
    24    12    13    1
    25    12    14   ar
    26    14    15   ar
    27    15    16   ar
    28    16    17    1
    29    32    22    1
    30    17     7    1
    31    31    25   ar
    32    16    10   ar
    33     4     6    1
    34     1     2    1
    35    20    21    1
@<TRIPOS>MOLECULE
*****
 32 35 0 0 0
SMALL
GASTEIGER

@<TRIPOS>ATOM
      1 N         144.3722  144.3875  162.4225 N.3     1  UNL1       -0.2932
      2 H         144.2405  144.8170  161.5067 H       1  UNL1        0.1234
      3 C         144.4429  142.9059  162.1997 C.3     1  UNL1        0.1020
      4 O         146.6274  141.8224  163.0965 O.3     1  UNL1       -0.3794
      5 C         145.1451  142.0305  163.1950 C.3     1  UNL1        0.1659
      6 H         146.9742  142.3206  162.3399 H       1  UNL1        0.2106
      7 C         144.3652  141.3632  164.2888 C.3     1  UNL1        0.1941
      8 C         144.1183  139.8845  164.2392 C.3     1  UNL1        0.0509
      9 C         143.3384  139.2172  165.3329 C.3     1  UNL1        0.0333
     10 C         142.8053  140.0286  166.4763 C.ar    1  UNL1        0.0141
     11 C         142.0253  139.3612  167.5702 C.ar    1  UNL1        0.0284
     12 C         141.4923  140.1726  168.7136 C.ar    1  UNL1        0.1400
     13 F         140.7123  139.5053  169.8074 F       1  UNL1       -0.2042
     14 C         141.7392  141.6513  168.7633 C.ar    1  UNL1        0.0327
     15 C         142.5191  142.3187  167.6695 C.ar    1  UNL1        0.0389
     16 C         143.0522  141.5073  166.5260 C.ar    1  UNL1        0.1346
     17 O         143.8321  142.1746  165.4322 O.3     1  UNL1       -0.4769
     18 C         143.3202  144.9610  163.3250 C.3     1  UNL1        0.1020
     19 C         141.8685  144.7335  163.0239 C.3     1  UNL1        0.1659
     20 O         141.1619  145.6098  162.0324 O.3     1  UNL1       -0.3794
     21 H         140.2363  145.3301  161.9557 H       1  UNL1        0.2106
     22 C         141.1232  143.6298  163.7142 C.3     1  UNL1        0.1941
     23 C         140.3499  143.9164  164.9671 C.3     1  UNL1        0.0509
     24 C         139.6047  142.8127  165.6574 C.3     1  UNL1        0.0333
     25 C         139.6329  141.4225  165.0949 C.ar    1  UNL1        0.0141
     26 C         138.8876  140.3188  165.7852 C.ar    1  UNL1        0.0284
     27 C         138.9158  138.9286  165.2226 C.ar    1  UNL1        0.1400
     28 F         138.1706  137.8249  165.9129 F       1  UNL1       -0.2042
     29 C         139.6892  138.6421  163.9697 C.ar    1  UNL1        0.0327
     30 C         140.4344  139.7457  163.2794 C.ar    1  UNL1        0.0389
     31 C         140.4062  141.1360  163.8420 C.ar    1  UNL1        0.1346
     32 O         141.1514  142.2396  163.1517 O.3     1  UNL1       -0.4769
@<TRIPOS>BOND
     1     4     5    1
     2     5     3    1
     3     3     1    1
     4     1    18    1
     5    18    19    1
     6    19    20    1
     7    19    22    1
     8    22    23    1
     9    23    24    1
    10    24    25    1
    11    25    26   ar
    12    26    27   ar
    13    27    28    1
    14    27    29   ar
    15    29    30   ar
    16    30    31   ar
    17    31    32    1
    18     5     7    1
    19     7     8    1
    20     8     9    1
    21     9    10    1
    22    10    11   ar
    23    11    12   ar
    24    12    13    1
    25    12    14   ar
    26    14    15   ar
    27    15    16   ar
    28    16    17    1
    29    32    22    1
    30    17     7    1
    31    31    25   ar
    32    16    10   ar
    33     4     6    1
    34     1     2    1
    35    20    21    1
@<TRIPOS>MOLECULE
*****
 32 35 0 0 0
SMALL
GASTEIGER

@<TRIPOS>ATOM
      1 N         138.6548  143.8118  161.7781 N.3     1  UNL1       -0.2932
      2 H         139.1524  142.9695  161.4895 H       1  UNL1        0.1234
      3 C         139.6953  144.8569  162.0523 C.3     1  UNL1        0.1020
      4 O         142.0687  145.2085  161.0558 O.3     1  UNL1       -0.3794
      5 C         141.1506  144.4968  162.0048 C.3     1  UNL1        0.1659
      6 H         141.5652  145.8658  160.5506 H       1  UNL1        0.2106
      7 C         141.6879  143.4251  162.9063 C.3     1  UNL1        0.1941
      8 C         142.5908  143.7882  164.0478 C.3     1  UNL1        0.0509
      9 C         143.1281  142.7166  164.9493 C.3     1  UNL1        0.0333
     10 C         142.7625  141.2817  164.7094 C.ar    1  UNL1        0.0141
     11 C         143.2998  140.2100  165.6110 C.ar    1  UNL1        0.0284
     12 C         142.9342  138.7752  165.3710 C.ar    1  UNL1        0.1400
     13 F         143.4715  137.7034  166.2726 F       1  UNL1       -0.2042
     14 C         142.0313  138.4120  164.2296 C.ar    1  UNL1        0.0327
     15 C         141.4940  139.4837  163.3281 C.ar    1  UNL1        0.0389
     16 C         141.8596  140.9186  163.5680 C.ar    1  UNL1        0.1346
     17 O         141.3223  141.9902  162.6664 O.3     1  UNL1       -0.4769
     18 C         137.7004  143.4016  162.8603 C.3     1  UNL1        0.1020
     19 C         137.5925  141.9593  163.2580 C.3     1  UNL1        0.1659
     20 O         136.7684  141.0140  162.4351 O.3     1  UNL1       -0.3794
     21 H         136.8049  140.1276  162.8274 H       1  UNL1        0.2106
     22 C         138.3087  141.4623  164.4788 C.3     1  UNL1        0.1941
     23 C         138.2325  140.0122  164.8547 C.3     1  UNL1        0.0509
     24 C         138.9486  139.5153  166.0754 C.3     1  UNL1        0.0333
     25 C         139.7410  140.4685  166.9202 C.ar    1  UNL1        0.0141
     26 C         140.4571  139.9715  168.1410 C.ar    1  UNL1        0.0284
     27 C         141.2495  140.9247  168.9857 C.ar    1  UNL1        0.1400
     28 F         141.9656  140.4278  170.2064 F       1  UNL1       -0.2042
     29 C         141.3256  142.3749  168.6098 C.ar    1  UNL1        0.0327
     30 C         140.6095  142.8718  167.3891 C.ar    1  UNL1        0.0389
     31 C         139.8171  141.9186  166.5443 C.ar    1  UNL1        0.1346
     32 O         139.1010  142.4155  165.3236 O.3     1  UNL1       -0.4769
@<TRIPOS>BOND
     1     4     5    1
     2     5     3    1
     3     3     1    1
     4     1    18    1
     5    18    19    1
     6    19    20    1
     7    19    22    1
     8    22    23    1
     9    23    24    1
    10    24    25    1
    11    25    26   ar
    12    26    27   ar
    13    27    28    1
    14    27    29   ar
    15    29    30   ar
    16    30    31   ar
    17    31    32    1
    18     5     7    1
    19     7     8    1
    20     8     9    1
    21     9    10    1
    22    10    11   ar
    23    11    12   ar
    24    12    13    1
    25    12    14   ar
    26    14    15   ar
    27    15    16   ar
    28    16    17    1
    29    32    22    1
    30    17     7    1
    31    31    25   ar
    32    16    10   ar
    33     4     6    1
    34     1     2    1
    35    20    21    1
@<TRIPOS>MOLECULE
*****
 32 35 0 0 0
SMALL
GASTEIGER

@<TRIPOS>ATOM
      1 N         139.0635  142.4090  161.0920 N.3     1  UNL1       -0.2932
      2 H         139.1656  143.2447  160.5162 H       1  UNL1        0.1234
      3 C         138.3960  141.3730  160.2371 C.3     1  UNL1        0.1020
      4 O         138.7758  139.1546  158.9393 O.3     1  UNL1       -0.3794
      5 C         138.9467  139.9789  160.1808 C.3     1  UNL1        0.1659
      6 H         138.2910  139.6682  158.2743 H       1  UNL1        0.2106
      7 C         139.6684  139.4091  161.3659 C.3     1  UNL1        0.1941
      8 C         139.1420  138.1792  162.0444 C.3     1  UNL1        0.0509
      9 C         139.8636  137.6093  163.2295 C.3     1  UNL1        0.0333
     10 C         141.1116  138.2694  163.7362 C.ar    1  UNL1        0.0141
     11 C         141.8332  137.6996  164.9213 C.ar    1  UNL1        0.0284
     12 C         143.0812  138.3597  165.4280 C.ar    1  UNL1        0.1400
     13 F         143.8029  137.7898  166.6132 F       1  UNL1       -0.2042
     14 C         143.6076  139.5896  164.7496 C.ar    1  UNL1        0.0327
     15 C         142.8860  140.1594  163.5645 C.ar    1  UNL1        0.0389
     16 C         141.6379  139.4993  163.0577 C.ar    1  UNL1        0.1346
     17 O         140.9163  140.0691  161.8726 O.3     1  UNL1       -0.4769
     18 C         138.4258  142.8445  162.3781 C.3     1  UNL1        0.1020
     19 C         137.8688  141.8216  163.3231 C.3     1  UNL1        0.1659
     20 O         136.5009  141.2516  163.0903 O.3     1  UNL1       -0.3794
     21 H         136.2954  140.6092  163.7874 H       1  UNL1        0.2106
     22 C         138.6796  141.3684  164.5010 C.3     1  UNL1        0.1941
     23 C         138.2413  140.1766  165.2993 C.3     1  UNL1        0.0509
     24 C         139.0521  139.7236  166.4772 C.3     1  UNL1        0.0333
     25 C         140.3012  140.4623  166.8566 C.ar    1  UNL1        0.0141
     26 C         141.1120  140.0092  168.0345 C.ar    1  UNL1        0.0284
     27 C         142.3611  140.7480  168.4140 C.ar    1  UNL1        0.1400
     28 F         143.1719  140.2949  169.5918 F       1  UNL1       -0.2042
     29 C         142.7994  141.9399  167.6156 C.ar    1  UNL1        0.0327
     30 C         141.9886  142.3929  166.4378 C.ar    1  UNL1        0.0389
     31 C         140.7395  141.6541  166.0583 C.ar    1  UNL1        0.1346
     32 O         139.9287  142.1072  164.8805 O.3     1  UNL1       -0.4769
@<TRIPOS>BOND
     1     4     5    1
     2     5     3    1
     3     3     1    1
     4     1    18    1
     5    18    19    1
     6    19    20    1
     7    19    22    1
     8    22    23    1
     9    23    24    1
    10    24    25    1
    11    25    26   ar
    12    26    27   ar
    13    27    28    1
    14    27    29   ar
    15    29    30   ar
    16    30    31   ar
    17    31    32    1
    18     5     7    1
    19     7     8    1
    20     8     9    1
    21     9    10    1
    22    10    11   ar
    23    11    12   ar
    24    12    13    1
    25    12    14   ar
    26    14    15   ar
    27    15    16   ar
    28    16    17    1
    29    32    22    1
    30    17     7    1
    31    31    25   ar
    32    16    10   ar
    33     4     6    1
    34     1     2    1
    35    20    21    1
@<TRIPOS>MOLECULE
*****
 32 35 0 0 0
SMALL
GASTEIGER

@<TRIPOS>ATOM
      1 N         140.5810  145.7983  162.1688 N.3     1  UNL1       -0.2932
      2 H         141.2666  146.0237  161.4481 H       1  UNL1        0.1234
      3 C         141.3507  145.5071  163.4229 C.3     1  UNL1        0.1020
      4 O         143.7530  145.1214  162.5118 O.3     1  UNL1       -0.3794
      5 C         142.5989  144.6777  163.3611 C.3     1  UNL1        0.1659
      6 H         143.5292  145.9571  162.0732 H       1  UNL1        0.2106
      7 C         142.6932  143.4046  164.1488 C.3     1  UNL1        0.1941
      8 C         141.7884  143.1810  165.3241 C.3     1  UNL1        0.0509
      9 C         141.8826  141.9080  166.1117 C.3     1  UNL1        0.0333
     10 C         142.8816  140.8584  165.7240 C.ar    1  UNL1        0.0141
     11 C         142.9758  139.5853  166.5116 C.ar    1  UNL1        0.0284
     12 C         143.9749  138.5357  166.1239 C.ar    1  UNL1        0.1400
     13 F         144.0691  137.2626  166.9115 F       1  UNL1       -0.2042
     14 C         144.8797  138.7592  164.9486 C.ar    1  UNL1        0.0327
     15 C         144.7855  140.0323  164.1610 C.ar    1  UNL1        0.0389
     16 C         143.7864  141.0819  164.5487 C.ar    1  UNL1        0.1346
     17 O         143.6922  142.3550  163.7611 O.3     1  UNL1       -0.4769
     18 C         139.6698  144.7571  161.5892 C.3     1  UNL1        0.1020
     19 C         138.6546  144.0796  162.4611 C.3     1  UNL1        0.1659
     20 O         137.3501  144.7574  162.7592 O.3     1  UNL1       -0.3794
     21 H         136.8134  144.1879  163.3324 H       1  UNL1        0.2106
     22 C         138.9440  142.7242  163.0350 C.3     1  UNL1        0.1941
     23 C         138.1710  142.2320  164.2225 C.3     1  UNL1        0.0509
     24 C         138.4603  140.8767  164.7964 C.3     1  UNL1        0.0333
     25 C         139.5226  140.0136  164.1828 C.ar    1  UNL1        0.0141
     26 C         139.8120  138.6582  164.7567 C.ar    1  UNL1        0.0284
     27 C         140.8743  137.7951  164.1430 C.ar    1  UNL1        0.1400
     28 F         141.1636  136.4398  164.7169 F       1  UNL1       -0.2042
     29 C         141.6473  138.2874  162.9555 C.ar    1  UNL1        0.0327
     30 C         141.3579  139.6427  162.3816 C.ar    1  UNL1        0.0389
     31 C         140.2956  140.5058  162.9953 C.ar    1  UNL1        0.1346
     32 O         140.0063  141.8611  162.4214 O.3     1  UNL1       -0.4769
@<TRIPOS>BOND
     1     4     5    1
     2     5     3    1
     3     3     1    1
     4     1    18    1
     5    18    19    1
     6    19    20    1
     7    19    22    1
     8    22    23    1
     9    23    24    1
    10    24    25    1
    11    25    26   ar
    12    26    27   ar
    13    27    28    1
    14    27    29   ar
    15    29    30   ar
    16    30    31   ar
    17    31    32    1
    18     5     7    1
    19     7     8    1
    20     8     9    1
    21     9    10    1
    22    10    11   ar
    23    11    12   ar
    24    12    13    1
    25    12    14   ar
    26    14    15   ar
    27    15    16   ar
    28    16    17    1
    29    32    22    1
    30    17     7    1
    31    31    25   ar
    32    16    10   ar
    33     4     6    1
    34     1     2    1
    35    20    21    1
