@<TRIPOS>MOLECULE
*****
 38 43 0 0 0
SMALL
GASTEIGER

@<TRIPOS>ATOM
      1 C         137.7758  142.9253  163.2011 C.3     1  UNL1        0.0932
      2 C         137.9501  142.6991  161.7285 C.3     1  UNL1        0.0286
      3 C         138.0046  141.3018  161.1857 C.3     1  UNL1        0.0193
      4 C         137.8847  140.1308  162.1155 C.3     1  UNL1        0.0700
      5 C         137.7104  140.3570  163.5880 C.3     1  UNL1        0.0193
      6 C         137.6559  141.7543  164.1308 C.3     1  UNL1        0.0286
      7 C         137.8492  140.8780  162.4595 C.3     1  UNL1        0.1562
      8 O         137.7999  142.1414  162.9503 O.3     1  UNL1       -0.3572
      9 N         137.9392  138.7335  161.5726 N.3     1  UNL1       -0.2926
     10 H         137.3443  138.7161  160.7442 H       1  UNL1        0.1236
     11 C         139.2552  138.1348  161.1733 C.3     1  UNL1        0.1152
     12 C         140.4546  138.3019  162.0585 C.ar    1  UNL1        0.0765
     13 C         140.6052  137.4526  163.2856 C.ar    1  UNL1        0.0193
     14 C         141.8047  137.6198  164.1708 C.ar    1  UNL1        0.0411
     15 C         142.8534  138.6363  163.8288 C.ar    1  UNL1        0.1708
     16 C         142.7027  139.4856  162.6016 C.ar    1  UNL1        0.1682
     17 N         141.5034  139.3184  161.7165 N.ar    1  UNL1       -0.2304
     18 N         143.7515  140.5021  162.2596 N.am    1  UNL1       -0.2639
     19 C         144.9508  140.6692  163.1448 C.2     1  UNL1        0.2718
     20 O         145.9995  141.6857  162.8028 O.2     1  UNL1       -0.2707
     21 C         145.1015  139.8199  164.3720 C.3     1  UNL1        0.2898
     22 O         144.0528  138.8035  164.7140 O.3     1  UNL1       -0.4628
     23 H         143.6526  141.0595  161.4542 H       1  UNL1        0.1565
     24 C         137.7213  144.3226  163.7440 C.3     1  UNL1        0.0319
     25 C         138.8610  144.8546  164.5613 C.3     1  UNL1        0.0301
     26 C         140.8664  142.0294  167.4331 C.ar    1  UNL1        0.2250
     27 C         142.2649  141.5570  167.1669 C.ar    1  UNL1        0.0593
     28 C         142.9950  142.0263  165.9435 C.ar    1  UNL1        0.0254
     29 C         142.3266  142.9680  164.9863 C.ar    1  UNL1        0.0988
     30 N         143.0567  143.4373  163.7628 N.ar    1  UNL1       -0.2427
     31 C         142.3882  144.3790  162.8056 C.ar    1  UNL1        0.0943
     32 C         140.9896  144.8515  163.0718 C.ar    1  UNL1       -0.0052
     33 C         140.3212  145.7932  162.1145 C.3     1  UNL1        0.0324
     34 C         140.2595  144.3822  164.2952 C.ar    1  UNL1       -0.0053
     35 C         140.9280  143.4404  165.2524 C.ar    1  UNL1        0.0977
     36 N         140.1980  142.9711  166.4758 N.ar    1  UNL1       -0.2105
     37 C         139.5342  140.1867  168.6899 C.3     1  UNL1        0.2542
     38 O         140.1363  141.5601  168.6565 O.3     1  UNL1       -0.4561
@<TRIPOS>BOND
     1    37    38    1
     2    38    26    1
     3    26    27   ar
     4    27    28   ar
     5    28    29   ar
     6    29    30   ar
     7    30    31   ar
     8    31    32   ar
     9    32    33    1
    10    32    34   ar
    11    34    25    1
    12    25    24    1
    13    24     1    1
    14     1     2    1
    15     2     3    1
    16     3     4    1
    17     4     9    1
    18     9    11    1
    19    11    12    1
    20    12    13   ar
    21    13    14   ar
    22    14    15   ar
    23    15    16   ar
    24    16    17   ar
    25    16    18    1
    26    18    19   am
    27    19    20    2
    28    19    21    1
    29    21    22    1
    30     4     5    1
    31     5     6    1
    32     4     7    1
    33     7     8    1
    34    34    35   ar
    35    35    36   ar
    36    36    26   ar
    37    35    29   ar
    38     6     1    1
    39     8     1    1
    40    17    12   ar
    41    22    15    1
    42     9    10    1
    43    18    23    1
@<TRIPOS>MOLECULE
*****
 38 43 0 0 0
SMALL
GASTEIGER

@<TRIPOS>ATOM
      1 C         141.8152  138.1175  164.2866 C.3     1  UNL1        0.0932
      2 C         142.8603  138.4857  165.2977 C.3     1  UNL1        0.0286
      3 C         144.0847  139.2393  164.8702 C.3     1  UNL1        0.0193
      4 C         144.2642  139.6245  163.4316 C.3     1  UNL1        0.0700
      5 C         143.2191  139.2563  162.4206 C.3     1  UNL1        0.0193
      6 C         141.9946  138.5028  162.8481 C.3     1  UNL1        0.0286
      7 C         143.5765  139.2120  163.6183 C.3     1  UNL1        0.1562
      8 O         142.4693  138.5307  164.0049 O.3     1  UNL1       -0.3572
      9 N         145.4887  140.3781  163.0041 N.3     1  UNL1       -0.2926
     10 H         145.5680  140.2623  161.9938 H       1  UNL1        0.1236
     11 C         145.5997  141.8480  163.2815 C.3     1  UNL1        0.1152
     12 C         144.3886  142.7259  163.1694 C.ar    1  UNL1        0.0765
     13 C         143.7012  143.2173  164.4088 C.ar    1  UNL1        0.0193
     14 C         142.4901  144.0952  164.2966 C.ar    1  UNL1        0.0411
     15 C         141.9664  144.4816  162.9452 C.ar    1  UNL1        0.1708
     16 C         142.6538  143.9902  161.7059 C.ar    1  UNL1        0.1682
     17 N         143.8648  143.1123  161.8179 N.ar    1  UNL1       -0.2304
     18 N         142.1300  144.3767  160.3544 N.am    1  UNL1       -0.2639
     19 C         140.9189  145.2545  160.2423 C.2     1  UNL1        0.2718
     20 O         140.3952  145.6409  158.8909 O.2     1  UNL1       -0.2707
     21 C         140.2315  145.7459  161.4817 C.3     1  UNL1        0.2898
     22 O         140.7552  145.3595  162.8331 O.3     1  UNL1       -0.4628
     23 H         142.5811  144.0541  159.5410 H       1  UNL1        0.1565
     24 C         140.5907  137.3639  164.7141 C.3     1  UNL1        0.0319
     25 C         139.3584  138.1104  165.1318 C.3     1  UNL1        0.0301
     26 C         140.7912  140.8746  168.3808 C.ar    1  UNL1        0.2250
     27 C         140.7134  142.3603  168.1898 C.ar    1  UNL1        0.0593
     28 C         140.1581  142.9246  166.9158 C.ar    1  UNL1        0.0254
     29 C         139.6805  142.0033  165.8328 C.ar    1  UNL1        0.0988
     30 N         139.1252  142.5676  164.5587 N.ar    1  UNL1       -0.2427
     31 C         138.6476  141.6462  163.4757 C.ar    1  UNL1        0.0943
     32 C         138.7254  140.1604  163.6667 C.ar    1  UNL1       -0.0052
     33 C         138.2478  139.2390  162.5837 C.3     1  UNL1        0.0324
     34 C         139.2807  139.5961  164.9407 C.ar    1  UNL1       -0.0053
     35 C         139.7583  140.5175  166.0238 C.ar    1  UNL1        0.0977
     36 N         140.3136  139.9532  167.2978 N.ar    1  UNL1       -0.2105
     37 C         142.4256  139.2696  169.6065 C.3     1  UNL1        0.2542
     38 O         141.3465  140.3102  169.6548 O.3     1  UNL1       -0.4561
@<TRIPOS>BOND
     1    37    38    1
     2    38    26    1
     3    26    27   ar
     4    27    28   ar
     5    28    29   ar
     6    29    30   ar
     7    30    31   ar
     8    31    32   ar
     9    32    33    1
    10    32    34   ar
    11    34    25    1
    12    25    24    1
    13    24     1    1
    14     1     2    1
    15     2     3    1
    16     3     4    1
    17     4     9    1
    18     9    11    1
    19    11    12    1
    20    12    13   ar
    21    13    14   ar
    22    14    15   ar
    23    15    16   ar
    24    16    17   ar
    25    16    18    1
    26    18    19   am
    27    19    20    2
    28    19    21    1
    29    21    22    1
    30     4     5    1
    31     5     6    1
    32     4     7    1
    33     7     8    1
    34    34    35   ar
    35    35    36   ar
    36    36    26   ar
    37    35    29   ar
    38     6     1    1
    39     8     1    1
    40    17    12   ar
    41    22    15    1
    42     9    10    1
    43    18    23    1
@<TRIPOS>MOLECULE
*****
 38 43 0 0 0
SMALL
GASTEIGER

@<TRIPOS>ATOM
      1 C         141.5499  138.5739  164.5591 C.3     1  UNL1        0.0932
      2 C         141.6108  139.0626  163.1423 C.3     1  UNL1        0.0286
      3 C         142.8725  139.6793  162.6153 C.3     1  UNL1        0.0193
      4 C         144.0732  139.8074  163.5051 C.3     1  UNL1        0.0700
      5 C         144.0123  139.3187  164.9219 C.3     1  UNL1        0.0193
      6 C         142.7507  138.7020  165.4489 C.3     1  UNL1        0.0286
      7 C         143.4041  139.4625  163.8386 C.3     1  UNL1        0.1562
      8 O         142.2633  138.9048  164.3152 O.3     1  UNL1       -0.3572
      9 N         145.3350  140.4241  162.9780 N.3     1  UNL1       -0.2926
     10 H         145.3780  140.2022  161.9834 H       1  UNL1        0.1236
     11 C         145.5556  141.9026  163.1017 C.3     1  UNL1        0.1152
     12 C         144.3917  142.8446  163.0126 C.ar    1  UNL1        0.0765
     13 C         143.8599  143.4991  164.2530 C.ar    1  UNL1        0.0193
     14 C         142.6959  144.4412  164.1638 C.ar    1  UNL1        0.0411
     15 C         142.0639  144.7287  162.8342 C.ar    1  UNL1        0.1708
     16 C         142.5958  144.0741  161.5938 C.ar    1  UNL1        0.1682
     17 N         143.7596  143.1321  161.6829 N.ar    1  UNL1       -0.2304
     18 N         141.9637  144.3616  160.2641 N.am    1  UNL1       -0.2639
     19 C         140.7998  145.3036  160.1750 C.2     1  UNL1        0.2718
     20 O         140.1678  145.5911  158.8454 O.2     1  UNL1       -0.2707
     21 C         140.2680  145.9582  161.4154 C.3     1  UNL1        0.2898
     22 O         140.9000  145.6707  162.7450 O.3     1  UNL1       -0.4628
     23 H         142.3128  143.9320  159.4500 H       1  UNL1        0.1565
     24 C         140.2882  137.9572  165.0862 C.3     1  UNL1        0.0319
     25 C         139.3290  138.7832  165.8910 C.3     1  UNL1        0.0301
     26 C         137.7880  141.4678  162.6249 C.ar    1  UNL1        0.2250
     27 C         137.9763  142.9526  162.7232 C.ar    1  UNL1        0.0593
     28 C         138.6783  143.5426  163.9103 C.ar    1  UNL1        0.0254
     29 C         139.1919  142.6478  164.9990 C.ar    1  UNL1        0.0988
     30 N         139.8939  143.2378  166.1861 N.ar    1  UNL1       -0.2427
     31 C         140.4075  142.3429  167.2748 C.ar    1  UNL1        0.0943
     32 C         140.2193  140.8580  167.1765 C.ar    1  UNL1       -0.0052
     33 C         140.7329  139.9632  168.2652 C.3     1  UNL1        0.0324
     34 C         139.5173  140.2680  165.9894 C.ar    1  UNL1       -0.0053
     35 C         139.0036  141.1629  164.9007 C.ar    1  UNL1        0.0977
     36 N         138.3017  140.5729  163.7136 N.ar    1  UNL1       -0.2105
     37 C         137.6192  139.6324  160.7938 C.3     1  UNL1        0.2542
     38 O         137.0860  140.8778  161.4378 O.3     1  UNL1       -0.4561
@<TRIPOS>BOND
     1    37    38    1
     2    38    26    1
     3    26    27   ar
     4    27    28   ar
     5    28    29   ar
     6    29    30   ar
     7    30    31   ar
     8    31    32   ar
     9    32    33    1
    10    32    34   ar
    11    34    25    1
    12    25    24    1
    13    24     1    1
    14     1     2    1
    15     2     3    1
    16     3     4    1
    17     4     9    1
    18     9    11    1
    19    11    12    1
    20    12    13   ar
    21    13    14   ar
    22    14    15   ar
    23    15    16   ar
    24    16    17   ar
    25    16    18    1
    26    18    19   am
    27    19    20    2
    28    19    21    1
    29    21    22    1
    30     4     5    1
    31     5     6    1
    32     4     7    1
    33     7     8    1
    34    34    35   ar
    35    35    36   ar
    36    36    26   ar
    37    35    29   ar
    38     6     1    1
    39     8     1    1
    40    17    12   ar
    41    22    15    1
    42     9    10    1
    43    18    23    1
@<TRIPOS>MOLECULE
*****
 38 43 0 0 0
SMALL
GASTEIGER

@<TRIPOS>ATOM
      1 C         142.5265  144.3760  163.5851 C.3     1  UNL1        0.0932
      2 C         141.2468  144.4920  164.3589 C.3     1  UNL1        0.0286
      3 C         139.9324  144.2642  163.6731 C.3     1  UNL1        0.0193
      4 C         139.8977  143.9204  162.2135 C.3     1  UNL1        0.0700
      5 C         141.1774  143.8044  161.4396 C.3     1  UNL1        0.0193
      6 C         142.4918  144.0322  162.1254 C.3     1  UNL1        0.0286
      7 C         140.6419  144.0363  162.5458 C.3     1  UNL1        0.1562
      8 O         141.8305  144.2423  163.1660 O.3     1  UNL1       -0.3572
      9 N         138.5832  143.6926  161.5276 N.3     1  UNL1       -0.2926
     10 H         138.5169  144.3841  160.7808 H       1  UNL1        0.1236
     11 C         138.2800  142.3592  160.9111 C.3     1  UNL1        0.1152
     12 C         138.4174  141.1075  161.7262 C.ar    1  UNL1        0.0765
     13 C         138.9068  139.8437  161.0832 C.ar    1  UNL1        0.0193
     14 C         139.0442  138.5920  161.8983 C.ar    1  UNL1        0.0411
     15 C         138.6922  138.6040  163.3564 C.ar    1  UNL1        0.1708
     16 C         138.2028  139.8678  163.9993 C.ar    1  UNL1        0.1682
     17 N         138.0654  141.1195  163.1843 N.ar    1  UNL1       -0.2304
     18 N         137.8507  139.8798  165.4575 N.am    1  UNL1       -0.2639
     19 C         137.9881  138.6281  166.2725 C.2     1  UNL1        0.2718
     20 O         137.6361  138.6402  167.7305 O.2     1  UNL1       -0.2707
     21 C         138.4775  137.3644  165.6295 C.3     1  UNL1        0.2898
     22 O         138.8295  137.3523  164.1715 O.3     1  UNL1       -0.4628
     23 H         137.5295  140.7092  165.8795 H       1  UNL1        0.1565
     24 C         143.8410  144.6039  164.2709 C.3     1  UNL1        0.0319
     25 C         144.4452  143.5198  165.1133 C.3     1  UNL1        0.0301
     26 C         141.3530  141.7075  167.8343 C.ar    1  UNL1        0.2250
     27 C         140.9270  140.2823  167.6413 C.ar    1  UNL1        0.0593
     28 C         141.5317  139.4612  166.5412 C.ar    1  UNL1        0.0254
     29 C         142.5624  140.0652  165.6342 C.ar    1  UNL1        0.0988
     30 N         143.1671  139.2441  164.5342 N.ar    1  UNL1       -0.2427
     31 C         144.1978  139.8482  163.6272 C.ar    1  UNL1        0.0943
     32 C         144.6239  141.2735  163.8202 C.ar    1  UNL1       -0.0052
     33 C         145.6546  141.8776  162.9132 C.3     1  UNL1        0.0324
     34 C         144.0192  142.0946  164.9203 C.ar    1  UNL1       -0.0053
     35 C         142.9884  141.4904  165.8273 C.ar    1  UNL1        0.0977
     36 N         142.3837  142.3115  166.9273 N.ar    1  UNL1       -0.2105
     37 C         141.6334  143.2026  169.9405 C.3     1  UNL1        0.2542
     38 O         140.7483  142.5286  168.9344 O.3     1  UNL1       -0.4561
@<TRIPOS>BOND
     1    37    38    1
     2    38    26    1
     3    26    27   ar
     4    27    28   ar
     5    28    29   ar
     6    29    30   ar
     7    30    31   ar
     8    31    32   ar
     9    32    33    1
    10    32    34   ar
    11    34    25    1
    12    25    24    1
    13    24     1    1
    14     1     2    1
    15     2     3    1
    16     3     4    1
    17     4     9    1
    18     9    11    1
    19    11    12    1
    20    12    13   ar
    21    13    14   ar
    22    14    15   ar
    23    15    16   ar
    24    16    17   ar
    25    16    18    1
    26    18    19   am
    27    19    20    2
    28    19    21    1
    29    21    22    1
    30     4     5    1
    31     5     6    1
    32     4     7    1
    33     7     8    1
    34    34    35   ar
    35    35    36   ar
    36    36    26   ar
    37    35    29   ar
    38     6     1    1
    39     8     1    1
    40    17    12   ar
    41    22    15    1
    42     9    10    1
    43    18    23    1
@<TRIPOS>MOLECULE
*****
 38 43 0 0 0
SMALL
GASTEIGER

@<TRIPOS>ATOM
      1 C         139.4091  138.1913  164.3634 C.3     1  UNL1        0.0932
      2 C         139.0956  138.3452  162.9046 C.3     1  UNL1        0.0286
      3 C         140.1385  138.0237  161.8756 C.3     1  UNL1        0.0193
      4 C         141.4948  137.5485  162.3052 C.3     1  UNL1        0.0700
      5 C         141.8082  137.3946  163.7640 C.3     1  UNL1        0.0193
      6 C         140.7654  137.7161  164.7931 C.3     1  UNL1        0.0286
      7 C         140.9559  137.7123  162.9057 C.3     1  UNL1        0.1562
      8 O         140.0129  138.0030  163.8362 O.3     1  UNL1       -0.3572
      9 N         142.5377  137.2270  161.2760 N.3     1  UNL1       -0.2926
     10 H         142.1095  137.3845  160.3638 H       1  UNL1        0.1236
     11 C         143.8431  137.9658  161.2750 C.3     1  UNL1        0.1152
     12 C         143.8601  139.4586  161.4203 C.ar    1  UNL1        0.0765
     13 C         143.6100  140.3312  160.2262 C.ar    1  UNL1        0.0193
     14 C         143.6270  141.8241  160.3715 C.ar    1  UNL1        0.0411
     15 C         143.8942  142.4443  161.7109 C.ar    1  UNL1        0.1708
     16 C         144.1444  141.5716  162.9050 C.ar    1  UNL1        0.1682
     17 N         144.1273  140.0788  162.7597 N.ar    1  UNL1       -0.2304
     18 N         144.4116  142.1919  164.2444 N.am    1  UNL1       -0.2639
     19 C         144.4286  143.6847  164.3897 C.2     1  UNL1        0.2718
     20 O         144.6958  144.3048  165.7290 O.2     1  UNL1       -0.2707
     21 C         144.1784  144.5573  163.1956 C.3     1  UNL1        0.2898
     22 O         143.9112  143.9372  161.8562 O.3     1  UNL1       -0.4628
     23 H         144.5758  141.6191  165.0281 H       1  UNL1        0.1565
     24 C         138.3662  138.5128  165.3926 C.3     1  UNL1        0.0319
     25 C         138.0996  139.9399  165.7699 C.3     1  UNL1        0.0301
     26 C         138.8293  142.8864  162.4479 C.ar    1  UNL1        0.2250
     27 C         139.9653  143.8609  162.5459 C.ar    1  UNL1        0.0593
     28 C         140.8581  143.8534  163.7512 C.ar    1  UNL1        0.0254
     29 C         140.6149  142.8712  164.8586 C.ar    1  UNL1        0.0988
     30 N         141.5077  142.8637  166.0639 N.ar    1  UNL1       -0.2427
     31 C         141.2645  141.8816  167.1712 C.ar    1  UNL1        0.0943
     32 C         140.1284  140.9069  167.0733 C.ar    1  UNL1       -0.0052
     33 C         139.8852  139.9248  168.1806 C.3     1  UNL1        0.0324
     34 C         139.2356  140.9145  165.8679 C.ar    1  UNL1       -0.0053
     35 C         139.4789  141.8967  164.7605 C.ar    1  UNL1        0.0977
     36 N         138.5861  141.9042  163.5552 N.ar    1  UNL1       -0.2105
     37 C         138.3345  142.1378  160.0097 C.3     1  UNL1        0.2542
     38 O         137.9366  142.8939  161.2425 O.3     1  UNL1       -0.4561
@<TRIPOS>BOND
     1    37    38    1
     2    38    26    1
     3    26    27   ar
     4    27    28   ar
     5    28    29   ar
     6    29    30   ar
     7    30    31   ar
     8    31    32   ar
     9    32    33    1
    10    32    34   ar
    11    34    25    1
    12    25    24    1
    13    24     1    1
    14     1     2    1
    15     2     3    1
    16     3     4    1
    17     4     9    1
    18     9    11    1
    19    11    12    1
    20    12    13   ar
    21    13    14   ar
    22    14    15   ar
    23    15    16   ar
    24    16    17   ar
    25    16    18    1
    26    18    19   am
    27    19    20    2
    28    19    21    1
    29    21    22    1
    30     4     5    1
    31     5     6    1
    32     4     7    1
    33     7     8    1
    34    34    35   ar
    35    35    36   ar
    36    36    26   ar
    37    35    29   ar
    38     6     1    1
    39     8     1    1
    40    17    12   ar
    41    22    15    1
    42     9    10    1
    43    18    23    1
@<TRIPOS>MOLECULE
*****
 38 43 0 0 0
SMALL
GASTEIGER

@<TRIPOS>ATOM
      1 C         141.6325  138.0176  164.5118 C.3     1  UNL1        0.0932
      2 C         141.7385  137.7871  163.0335 C.3     1  UNL1        0.0286
      3 C         140.4977  137.7287  162.1927 C.3     1  UNL1        0.0193
      4 C         139.1509  137.9007  162.8304 C.3     1  UNL1        0.0700
      5 C         139.0449  138.1312  164.3087 C.3     1  UNL1        0.0193
      6 C         140.2857  138.1896  165.1495 C.3     1  UNL1        0.0286
      7 C         139.8024  137.9405  163.3321 C.3     1  UNL1        0.1562
      8 O         140.9245  137.9934  164.0923 O.3     1  UNL1       -0.3572
      9 N         137.9100  137.8422  161.9895 N.3     1  UNL1       -0.2926
     10 H         137.1236  137.7438  162.6316 H       1  UNL1        0.1236
     11 C         137.5757  138.9760  161.0661 C.3     1  UNL1        0.1152
     12 C         137.9340  140.3824  161.4449 C.ar    1  UNL1        0.0765
     13 C         137.3127  141.0146  162.6550 C.ar    1  UNL1        0.0193
     14 C         137.6710  142.4211  163.0338 C.ar    1  UNL1        0.0411
     15 C         138.6506  143.1953  162.2026 C.ar    1  UNL1        0.1708
     16 C         139.2719  142.5631  160.9925 C.ar    1  UNL1        0.1682
     17 N         138.9136  141.1567  160.6137 N.ar    1  UNL1       -0.2304
     18 N         140.2515  143.3374  160.1612 N.am    1  UNL1       -0.2639
     19 C         140.6098  144.7438  160.5401 C.2     1  UNL1        0.2718
     20 O         141.5894  145.5180  159.7088 O.2     1  UNL1       -0.2707
     21 C         139.9885  145.3760  161.7501 C.3     1  UNL1        0.2898
     22 O         139.0090  144.6018  162.5814 O.3     1  UNL1       -0.4628
     23 H         140.6593  142.9224  159.3670 H       1  UNL1        0.1565
     24 C         142.8734  138.0761  165.3527 C.3     1  UNL1        0.0319
     25 C         143.6183  139.3695  165.5014 C.3     1  UNL1        0.0301
     26 C         140.4920  141.8812  167.5428 C.ar    1  UNL1        0.2250
     27 C         139.9772  143.1238  166.8787 C.ar    1  UNL1        0.0593
     28 C         140.5046  143.5292  165.5343 C.ar    1  UNL1        0.0254
     29 C         141.5466  142.6920  164.8538 C.ar    1  UNL1        0.0988
     30 N         142.0740  143.0973  163.5093 N.ar    1  UNL1       -0.2427
     31 C         143.1160  142.2601  162.8289 C.ar    1  UNL1        0.0943
     32 C         143.6309  141.0174  163.4929 C.ar    1  UNL1       -0.0052
     33 C         144.6729  140.1802  162.8124 C.3     1  UNL1        0.0324
     34 C         143.1035  140.6121  164.8373 C.ar    1  UNL1       -0.0053
     35 C         142.0614  141.4494  165.5178 C.ar    1  UNL1        0.0977
     36 N         141.5341  141.0440  166.8623 N.ar    1  UNL1       -0.2105
     37 C         140.7008  140.4568  169.7054 C.3     1  UNL1        0.2542
     38 O         139.9647  141.4759  168.8872 O.3     1  UNL1       -0.4561
@<TRIPOS>BOND
     1    37    38    1
     2    38    26    1
     3    26    27   ar
     4    27    28   ar
     5    28    29   ar
     6    29    30   ar
     7    30    31   ar
     8    31    32   ar
     9    32    33    1
    10    32    34   ar
    11    34    25    1
    12    25    24    1
    13    24     1    1
    14     1     2    1
    15     2     3    1
    16     3     4    1
    17     4     9    1
    18     9    11    1
    19    11    12    1
    20    12    13   ar
    21    13    14   ar
    22    14    15   ar
    23    15    16   ar
    24    16    17   ar
    25    16    18    1
    26    18    19   am
    27    19    20    2
    28    19    21    1
    29    21    22    1
    30     4     5    1
    31     5     6    1
    32     4     7    1
    33     7     8    1
    34    34    35   ar
    35    35    36   ar
    36    36    26   ar
    37    35    29   ar
    38     6     1    1
    39     8     1    1
    40    17    12   ar
    41    22    15    1
    42     9    10    1
    43    18    23    1
@<TRIPOS>MOLECULE
*****
 38 43 0 0 0
SMALL
GASTEIGER

@<TRIPOS>ATOM
      1 C         139.8112  138.1629  164.2495 C.3     1  UNL1        0.0932
      2 C         139.5401  138.4106  162.7952 C.3     1  UNL1        0.0286
      3 C         138.5798  139.4871  162.3840 C.3     1  UNL1        0.0193
      4 C         137.8906  140.3158  163.4272 C.3     1  UNL1        0.0700
      5 C         138.1616  140.0681  164.8815 C.3     1  UNL1        0.0193
      6 C         139.1219  138.9917  165.2927 C.3     1  UNL1        0.0286
      7 C         138.4086  139.7373  163.7009 C.3     1  UNL1        0.1562
      8 O         139.2769  138.7640  164.0727 O.3     1  UNL1       -0.3572
      9 N         136.9302  141.3922  163.0159 N.3     1  UNL1       -0.2926
     10 H         136.1308  141.3301  163.6463 H       1  UNL1        0.1236
     11 C         137.3683  142.8268  163.0123 C.3     1  UNL1        0.1152
     12 C         138.7798  143.1789  162.6468 C.ar    1  UNL1        0.0765
     13 C         139.2390  143.0567  161.2240 C.ar    1  UNL1        0.0193
     14 C         140.6506  143.4089  160.8586 C.ar    1  UNL1        0.0411
     15 C         141.6029  143.8833  161.9159 C.ar    1  UNL1        0.1708
     16 C         141.1438  144.0055  163.3387 C.ar    1  UNL1        0.1682
     17 N         139.7323  143.6534  163.7041 N.ar    1  UNL1       -0.2304
     18 N         142.0962  144.4799  164.3960 N.am    1  UNL1       -0.2639
     19 C         143.5077  144.8321  164.0305 C.2     1  UNL1        0.2718
     20 O         144.4601  145.3064  165.0878 O.2     1  UNL1       -0.2707
     21 C         143.9669  144.7098  162.6078 C.3     1  UNL1        0.2898
     22 O         143.0145  144.2355  161.5505 O.3     1  UNL1       -0.4628
     23 H         141.7949  144.5601  165.3298 H       1  UNL1        0.1565
     24 C         140.7715  137.0865  164.6608 C.3     1  UNL1        0.0319
     25 C         142.2130  137.4211  164.9061 C.3     1  UNL1        0.0301
     26 C         142.2463  140.2372  168.4158 C.ar    1  UNL1        0.2250
     27 C         142.7291  141.6466  168.2419 C.ar    1  UNL1        0.0593
     28 C         143.2009  142.1174  166.8981 C.ar    1  UNL1        0.0254
     29 C         143.1898  141.1787  165.7282 C.ar    1  UNL1        0.0988
     30 N         143.6616  141.6495  164.3844 N.ar    1  UNL1       -0.2427
     31 C         143.6505  140.7108  163.2145 C.ar    1  UNL1        0.0943
     32 C         143.1677  139.3013  163.3884 C.ar    1  UNL1       -0.0052
     33 C         143.1566  138.3626  162.2185 C.3     1  UNL1        0.0324
     34 C         142.6959  138.8305  164.7322 C.ar    1  UNL1       -0.0053
     35 C         142.7070  139.7693  165.9021 C.ar    1  UNL1        0.0977
     36 N         142.2352  139.2985  167.2459 N.ar    1  UNL1       -0.2105
     37 C         140.4543  140.2337  170.2970 C.3     1  UNL1        0.2542
     38 O         141.7745  139.7664  169.7596 O.3     1  UNL1       -0.4561
@<TRIPOS>BOND
     1    37    38    1
     2    38    26    1
     3    26    27   ar
     4    27    28   ar
     5    28    29   ar
     6    29    30   ar
     7    30    31   ar
     8    31    32   ar
     9    32    33    1
    10    32    34   ar
    11    34    25    1
    12    25    24    1
    13    24     1    1
    14     1     2    1
    15     2     3    1
    16     3     4    1
    17     4     9    1
    18     9    11    1
    19    11    12    1
    20    12    13   ar
    21    13    14   ar
    22    14    15   ar
    23    15    16   ar
    24    16    17   ar
    25    16    18    1
    26    18    19   am
    27    19    20    2
    28    19    21    1
    29    21    22    1
    30     4     5    1
    31     5     6    1
    32     4     7    1
    33     7     8    1
    34    34    35   ar
    35    35    36   ar
    36    36    26   ar
    37    35    29   ar
    38     6     1    1
    39     8     1    1
    40    17    12   ar
    41    22    15    1
    42     9    10    1
    43    18    23    1
@<TRIPOS>MOLECULE
*****
 38 43 0 0 0
SMALL
GASTEIGER

@<TRIPOS>ATOM
      1 C         141.5029  145.1148  162.2670 C.3     1  UNL1        0.0932
      2 C         142.2643  145.1228  163.5593 C.3     1  UNL1        0.0286
      3 C         143.5098  144.2990  163.7010 C.3     1  UNL1        0.0193
      4 C         143.9939  143.4673  162.5504 C.3     1  UNL1        0.0700
      5 C         143.2325  143.4593  161.2581 C.3     1  UNL1        0.0193
      6 C         141.9870  144.2830  161.1164 C.3     1  UNL1        0.0286
      7 C         143.3061  143.9023  162.4253 C.3     1  UNL1        0.1562
      8 O         142.1799  144.6471  162.2972 O.3     1  UNL1       -0.3572
      9 N         145.2394  142.6435  162.6922 N.3     1  UNL1       -0.2926
     10 H         145.9118  143.2124  163.2066 H       1  UNL1        0.1236
     11 C         145.1835  141.3116  163.3798 C.3     1  UNL1        0.1152
     12 C         144.0615  140.3612  163.0836 C.ar    1  UNL1        0.0765
     13 C         144.0349  139.6142  161.7831 C.ar    1  UNL1        0.0193
     14 C         142.9128  138.6637  161.4869 C.ar    1  UNL1        0.0411
     15 C         141.8174  138.4603  162.4912 C.ar    1  UNL1        0.1708
     16 C         141.8440  139.2073  163.7917 C.ar    1  UNL1        0.1682
     17 N         142.9660  140.1577  164.0879 N.ar    1  UNL1       -0.2304
     18 N         140.7485  139.0038  164.7960 N.am    1  UNL1       -0.2639
     19 C         139.6265  138.0534  164.4998 C.2     1  UNL1        0.2718
     20 O         138.5311  137.8500  165.5041 O.2     1  UNL1       -0.2707
     21 C         139.5999  137.3065  163.1993 C.3     1  UNL1        0.2898
     22 O         140.6953  137.5099  162.1950 O.3     1  UNL1       -0.4628
     23 H         140.7660  139.4941  165.6496 H       1  UNL1        0.1565
     24 C         140.2573  145.9386  162.1252 C.3     1  UNL1        0.0319
     25 C         138.9373  145.3855  162.5740 C.3     1  UNL1        0.0301
     26 C         138.4676  142.2391  159.3914 C.ar    1  UNL1        0.2250
     27 C         138.3518  140.7941  159.7766 C.ar    1  UNL1        0.0593
     28 C         138.3926  140.3978  161.2228 C.ar    1  UNL1        0.0254
     29 C         138.5491  141.4466  162.2837 C.ar    1  UNL1        0.0988
     30 N         138.5898  141.0504  163.7298 N.ar    1  UNL1       -0.2427
     31 C         138.7464  142.0991  164.7907 C.ar    1  UNL1        0.0943
     32 C         138.8622  143.5443  164.4054 C.ar    1  UNL1       -0.0052
     33 C         139.0187  144.5930  165.4663 C.3     1  UNL1        0.0324
     34 C         138.8215  143.9405  162.9593 C.ar    1  UNL1       -0.0053
     35 C         138.6649  142.8916  161.8984 C.ar    1  UNL1        0.0977
     36 N         138.6242  143.2879  160.4523 N.ar    1  UNL1       -0.2105
     37 C         137.3387  142.1129  157.0548 C.3     1  UNL1        0.2542
     38 O         138.4269  142.6353  157.9452 O.3     1  UNL1       -0.4561
@<TRIPOS>BOND
     1    37    38    1
     2    38    26    1
     3    26    27   ar
     4    27    28   ar
     5    28    29   ar
     6    29    30   ar
     7    30    31   ar
     8    31    32   ar
     9    32    33    1
    10    32    34   ar
    11    34    25    1
    12    25    24    1
    13    24     1    1
    14     1     2    1
    15     2     3    1
    16     3     4    1
    17     4     9    1
    18     9    11    1
    19    11    12    1
    20    12    13   ar
    21    13    14   ar
    22    14    15   ar
    23    15    16   ar
    24    16    17   ar
    25    16    18    1
    26    18    19   am
    27    19    20    2
    28    19    21    1
    29    21    22    1
    30     4     5    1
    31     5     6    1
    32     4     7    1
    33     7     8    1
    34    34    35   ar
    35    35    36   ar
    36    36    26   ar
    37    35    29   ar
    38     6     1    1
    39     8     1    1
    40    17    12   ar
    41    22    15    1
    42     9    10    1
    43    18    23    1
@<TRIPOS>MOLECULE
*****
 38 43 0 0 0
SMALL
GASTEIGER

@<TRIPOS>ATOM
      1 C         139.3656  137.9748  164.4672 C.3     1  UNL1        0.0932
      2 C         140.7515  137.5532  164.8563 C.3     1  UNL1        0.0286
      3 C         141.7866  137.3110  163.7981 C.3     1  UNL1        0.0193
      4 C         141.4359  137.4904  162.3508 C.3     1  UNL1        0.0700
      5 C         140.0500  137.9120  161.9616 C.3     1  UNL1        0.0193
      6 C         139.0148  138.1542  163.0198 C.3     1  UNL1        0.0286
      7 C         140.8350  137.6348  162.8949 C.3     1  UNL1        0.1562
      8 O         139.8990  137.8538  163.8517 O.3     1  UNL1       -0.3572
      9 N         142.4711  137.2482  161.2926 N.3     1  UNL1       -0.2926
     10 H         142.0200  137.4212  160.3943 H       1  UNL1        0.1236
     11 C         143.7462  138.0382  161.2960 C.3     1  UNL1        0.1152
     12 C         143.7543  139.4468  161.8115 C.ar    1  UNL1        0.0765
     13 C         144.6270  139.8147  162.9747 C.ar    1  UNL1        0.0193
     14 C         144.6352  141.2234  163.4901 C.ar    1  UNL1        0.0411
     15 C         143.7706  142.2640  162.8424 C.ar    1  UNL1        0.1708
     16 C         142.8978  141.8961  161.6793 C.ar    1  UNL1        0.1682
     17 N         142.8897  140.4875  161.1638 N.ar    1  UNL1       -0.2304
     18 N         142.0332  142.9368  161.0316 N.am    1  UNL1       -0.2639
     19 C         142.0413  144.3454  161.5471 C.2     1  UNL1        0.2718
     20 O         141.1767  145.3860  160.8994 O.2     1  UNL1       -0.2707
     21 C         142.9141  144.7133  162.7102 C.3     1  UNL1        0.2898
     22 O         143.7787  143.6727  163.3579 O.3     1  UNL1       -0.4628
     23 H         141.4604  142.6953  160.2682 H       1  UNL1        0.1565
     24 C         138.3304  138.2170  165.5254 C.3     1  UNL1        0.0319
     25 C         138.0838  139.6083  166.0288 C.3     1  UNL1        0.0301
     26 C         141.9630  140.3097  168.1990 C.ar    1  UNL1        0.2250
     27 C         142.8660  141.4308  167.7776 C.ar    1  UNL1        0.0593
     28 C         142.4760  142.3182  166.6328 C.ar    1  UNL1        0.0254
     29 C         141.1830  142.0844  165.9094 C.ar    1  UNL1        0.0988
     30 N         140.7930  142.9717  164.7646 N.ar    1  UNL1       -0.2427
     31 C         139.4999  142.7379  164.0412 C.ar    1  UNL1        0.0943
     32 C         138.5968  141.6167  164.4626 C.ar    1  UNL1       -0.0052
     33 C         137.3038  141.3829  163.7392 C.3     1  UNL1        0.0324
     34 C         138.9868  140.7294  165.6074 C.ar    1  UNL1       -0.0053
     35 C         140.2799  140.9633  166.3308 C.ar    1  UNL1        0.0977
     36 N         140.6699  140.0759  167.4756 N.ar    1  UNL1       -0.2105
     37 C         142.8140  140.0260  170.6373 C.3     1  UNL1        0.2542
     38 O         142.3530  139.4224  169.3438 O.3     1  UNL1       -0.4561
@<TRIPOS>BOND
     1    37    38    1
     2    38    26    1
     3    26    27   ar
     4    27    28   ar
     5    28    29   ar
     6    29    30   ar
     7    30    31   ar
     8    31    32   ar
     9    32    33    1
    10    32    34   ar
    11    34    25    1
    12    25    24    1
    13    24     1    1
    14     1     2    1
    15     2     3    1
    16     3     4    1
    17     4     9    1
    18     9    11    1
    19    11    12    1
    20    12    13   ar
    21    13    14   ar
    22    14    15   ar
    23    15    16   ar
    24    16    17   ar
    25    16    18    1
    26    18    19   am
    27    19    20    2
    28    19    21    1
    29    21    22    1
    30     4     5    1
    31     5     6    1
    32     4     7    1
    33     7     8    1
    34    34    35   ar
    35    35    36   ar
    36    36    26   ar
    37    35    29   ar
    38     6     1    1
    39     8     1    1
    40    17    12   ar
    41    22    15    1
    42     9    10    1
    43    18    23    1
