@<TRIPOS>MOLECULE
*****
 29 32 0 0 0
SMALL
GASTEIGER

@<TRIPOS>ATOM
      1 C         140.7190  140.0188  168.1013 C.ar    1  UNL1        0.1068
      2 C         142.1390  139.6653  168.4308 C.ar    1  UNL1        0.0867
      3 C         143.0669  139.2008  167.3477 C.ar    1  UNL1        0.0374
      4 C         142.5749  139.0898  165.9350 C.ar    1  UNL1        0.1144
      5 N         141.1549  139.4434  165.6055 N.ar    1  UNL1       -0.2782
      6 C         140.2269  139.9078  166.6886 C.ar    1  UNL1        0.1582
      7 N         138.8903  140.1845  166.0667 N.ar    1  UNL1       -0.2257
      8 C         138.9921  139.8911  164.5992 C.ar    1  UNL1        0.0999
      9 C         137.9912  139.9818  163.4857 C.ar    1  UNL1        0.0329
     10 C         138.3900  139.6144  162.0871 C.ar    1  UNL1        0.0698
     11 CL        137.3891  139.7051  160.9735 Cl      1  UNL1       -0.0813
     12 C         139.7896  139.1563  161.8021 C.ar    1  UNL1        0.0697
     13 CL        140.1883  138.7890  160.4034 Cl      1  UNL1       -0.0813
     14 C         140.7905  139.0656  162.9156 C.ar    1  UNL1        0.0314
     15 C         140.3917  139.4330  164.3141 C.ar    1  UNL1        0.0850
     16 C         142.6310  139.7763  169.8435 C.3     1  UNL1        0.4194
     17 F         143.1231  139.8872  171.2561 F       1  UNL1       -0.1658
     18 F         142.2321  138.3522  170.0943 F       1  UNL1       -0.1658
     19 F         143.0300  141.2003  169.5926 F       1  UNL1       -0.1658
     20 N         138.8632  140.9478  170.2676 N.1     1  UNL1       -0.1907
     21 C         139.7911  140.4833  169.1844 C.1     1  UNL1        0.1034
     22 N         143.5029  138.6253  164.8518 N.pl3   1  UNL1       -0.3130
     23 H         143.2668  137.8425  164.3035 H       1  UNL1        0.1486
     24 C         144.7906  139.3537  164.6042 C.3     1  UNL1        0.1538
     25 C         144.7843  140.6562  163.8603 C.ar    1  UNL1        0.1428
     26 C         144.3989  141.9917  164.4241 C.ar    1  UNL1        0.0379
     27 C         144.5387  143.0129  163.3343 C.ar    1  UNL1        0.0435
     28 C         145.0106  142.3085  162.0970 C.ar    1  UNL1        0.1792
     29 O         145.1624  140.8520  162.4220 O.2     1  UNL1       -0.4530
@<TRIPOS>BOND
     1    20    21    3
     2    21     1    1
     3     1     2   ar
     4     2    16    1
     5    16    17    1
     6    16    18    1
     7    16    19    1
     8     2     3   ar
     9     3     4   ar
    10     4    22    1
    11    22    24    1
    12    24    25    1
    13    25    26   ar
    14    26    27   ar
    15    27    28   ar
    16    28    29   ar
    17     4     5   ar
    18     5     6   ar
    19     6     7   ar
    20     7     8   ar
    21     8     9   ar
    22     9    10   ar
    23    10    11    1
    24    10    12   ar
    25    12    13    1
    26    12    14   ar
    27    14    15   ar
    28     6     1   ar
    29    15     8   ar
    30    29    25   ar
    31    15     5   ar
    32    22    23    1
@<TRIPOS>MOLECULE
*****
 29 32 0 0 0
SMALL
GASTEIGER

@<TRIPOS>ATOM
      1 C         140.1815  141.7686  167.9992 C.ar    1  UNL1        0.1068
      2 C         139.6572  140.4328  168.4358 C.ar    1  UNL1        0.0867
      3 C         139.0635  139.4942  167.4276 C.ar    1  UNL1        0.0374
      4 C         138.9940  139.8915  165.9828 C.ar    1  UNL1        0.1144
      5 N         139.5183  141.2273  165.5462 N.ar    1  UNL1       -0.2782
      6 C         140.1121  142.1659  166.5544 C.ar    1  UNL1        0.1582
      7 N         140.5453  143.4075  165.8329 N.ar    1  UNL1       -0.2257
      8 C         140.2193  143.2363  164.3788 C.ar    1  UNL1        0.0999
      9 C         140.4185  144.1333  163.1931 C.ar    1  UNL1        0.0329
     10 C         139.9828  143.6828  161.8304 C.ar    1  UNL1        0.0698
     11 CL        140.1820  144.5798  160.6447 Cl      1  UNL1       -0.0813
     12 C         139.3481  142.3353  161.6532 C.ar    1  UNL1        0.0697
     13 CL        138.9125  141.8848  160.2903 Cl      1  UNL1       -0.0813
     14 C         139.1490  141.4383  162.8388 C.ar    1  UNL1        0.0314
     15 C         139.5846  141.8888  164.2016 C.ar    1  UNL1        0.0850
     16 C         139.7266  140.0356  169.8806 C.3     1  UNL1        0.4194
     17 F         139.7961  139.6383  171.3254 F       1  UNL1       -0.1658
     18 F         138.3755  140.6442  170.1128 F       1  UNL1       -0.1658
     19 F         141.0778  139.4269  169.6483 F       1  UNL1       -0.1658
     20 N         141.3689  143.6458  170.0157 N.1     1  UNL1       -0.1907
     21 C         140.7753  142.7072  169.0074 C.1     1  UNL1        0.1034
     22 N         138.4002  138.9528  164.9745 N.pl3   1  UNL1       -0.3130
     23 H         137.5183  139.1458  164.5819 H       1  UNL1        0.1486
     24 C         139.1502  137.7201  164.5647 C.3     1  UNL1        0.1538
     25 C         140.3626  137.8363  163.6892 C.ar    1  UNL1        0.1428
     26 C         141.7081  138.3489  164.1099 C.ar    1  UNL1        0.0379
     27 C         142.6195  138.2898  162.9201 C.ar    1  UNL1        0.0435
     28 C         141.8373  137.7408  161.7639 C.ar    1  UNL1        0.1792
     29 O         140.4425  137.4605  162.2392 O.2     1  UNL1       -0.4530
@<TRIPOS>BOND
     1    20    21    3
     2    21     1    1
     3     1     2   ar
     4     2    16    1
     5    16    17    1
     6    16    18    1
     7    16    19    1
     8     2     3   ar
     9     3     4   ar
    10     4    22    1
    11    22    24    1
    12    24    25    1
    13    25    26   ar
    14    26    27   ar
    15    27    28   ar
    16    28    29   ar
    17     4     5   ar
    18     5     6   ar
    19     6     7   ar
    20     7     8   ar
    21     8     9   ar
    22     9    10   ar
    23    10    11    1
    24    10    12   ar
    25    12    13    1
    26    12    14   ar
    27    14    15   ar
    28     6     1   ar
    29    15     8   ar
    30    29    25   ar
    31    15     5   ar
    32    22    23    1
@<TRIPOS>MOLECULE
*****
 29 32 0 0 0
SMALL
GASTEIGER

@<TRIPOS>ATOM
      1 C         140.9419  140.9951  168.3964 C.ar    1  UNL1        0.1068
      2 C         141.9814  142.0739  168.4720 C.ar    1  UNL1        0.0867
      3 C         142.5349  142.6717  167.2125 C.ar    1  UNL1        0.0374
      4 C         142.0489  142.1907  165.8774 C.ar    1  UNL1        0.1144
      5 N         141.0094  141.1120  165.8018 N.ar    1  UNL1       -0.2782
      6 C         140.4559  140.5142  167.0613 C.ar    1  UNL1        0.1582
      7 N         139.4473  139.4730  166.6758 N.ar    1  UNL1       -0.2257
      8 C         139.3774  139.4273  165.1781 C.ar    1  UNL1        0.0999
      9 C         138.5593  138.5942  164.2365 C.ar    1  UNL1        0.0329
     10 C         138.7068  138.7741  162.7547 C.ar    1  UNL1        0.0698
     11 CL        137.8887  137.9410  161.8129 Cl      1  UNL1       -0.0813
     12 C         139.6722  139.7871  162.2145 C.ar    1  UNL1        0.0697
     13 CL        139.8196  139.9669  160.7326 Cl      1  UNL1       -0.0813
     14 C         140.4903  140.6202  163.1561 C.ar    1  UNL1        0.0314
     15 C         140.3428  140.4403  164.6379 C.ar    1  UNL1        0.0850
     16 C         142.4674  142.5549  169.8071 C.3     1  UNL1        0.4194
     17 F         142.9534  143.0358  171.1423 F       1  UNL1       -0.1658
     18 F         141.4048  143.6136  169.8125 F       1  UNL1       -0.1658
     19 F         143.5300  141.4961  169.8018 F       1  UNL1       -0.1658
     20 N         139.8351  139.7995  170.9154 N.1     1  UNL1       -0.1907
     21 C         140.3885  140.3973  169.6559 C.1     1  UNL1        0.1034
     22 N         142.6024  142.7886  164.6179 N.pl3   1  UNL1       -0.3130
     23 H         143.3672  142.3640  164.1662 H       1  UNL1        0.1486
     24 C         141.9906  144.0334  164.0467 C.3     1  UNL1        0.1538
     25 C         140.4997  144.1512  163.9310 C.ar    1  UNL1        0.1428
     26 C         139.5434  144.3859  165.0624 C.ar    1  UNL1        0.0379
     27 C         138.1560  144.4347  164.4942 C.ar    1  UNL1        0.0435
     28 C         138.2550  144.2301  163.0115 C.ar    1  UNL1        0.1792
     29 O         139.7035  144.0548  162.6634 O.2     1  UNL1       -0.4530
@<TRIPOS>BOND
     1    20    21    3
     2    21     1    1
     3     1     2   ar
     4     2    16    1
     5    16    17    1
     6    16    18    1
     7    16    19    1
     8     2     3   ar
     9     3     4   ar
    10     4    22    1
    11    22    24    1
    12    24    25    1
    13    25    26   ar
    14    26    27   ar
    15    27    28   ar
    16    28    29   ar
    17     4     5   ar
    18     5     6   ar
    19     6     7   ar
    20     7     8   ar
    21     8     9   ar
    22     9    10   ar
    23    10    11    1
    24    10    12   ar
    25    12    13    1
    26    12    14   ar
    27    14    15   ar
    28     6     1   ar
    29    15     8   ar
    30    29    25   ar
    31    15     5   ar
    32    22    23    1
@<TRIPOS>MOLECULE
*****
 29 32 0 0 0
SMALL
GASTEIGER

@<TRIPOS>ATOM
      1 C         143.5314  142.9569  162.9442 C.ar    1  UNL1        0.1068
      2 C         142.9992  143.6659  164.1542 C.ar    1  UNL1        0.0867
      3 C         141.9857  144.7605  163.9968 C.ar    1  UNL1        0.0374
      4 C         141.5045  145.1461  162.6294 C.ar    1  UNL1        0.1144
      5 N         142.0368  144.4372  161.4194 N.ar    1  UNL1       -0.2782
      6 C         143.0502  143.3426  161.5768 C.ar    1  UNL1        0.1582
      7 N         143.3914  142.8269  160.2102 N.ar    1  UNL1       -0.2257
      8 C         142.5889  143.6027  159.2082 C.ar    1  UNL1        0.0999
      9 C         142.5123  143.5315  157.7119 C.ar    1  UNL1        0.0329
     10 C         141.5984  144.4556  156.9629 C.ar    1  UNL1        0.0698
     11 CL        141.5218  144.3844  155.4665 Cl      1  UNL1       -0.0813
     12 C         140.7612  145.4508  157.7103 C.ar    1  UNL1        0.0697
     13 CL        139.8473  146.3749  156.9612 Cl      1  UNL1       -0.0813
     14 C         140.8378  145.5220  159.2066 C.ar    1  UNL1        0.0314
     15 C         141.7516  144.5980  159.9555 C.ar    1  UNL1        0.0850
     16 C         143.4804  143.2802  165.5216 C.3     1  UNL1        0.4194
     17 F         143.9616  142.8945  166.8890 F       1  UNL1       -0.1658
     18 F         142.3329  142.3234  165.6555 F       1  UNL1       -0.1658
     19 F         144.6279  144.2370  165.3876 F       1  UNL1       -0.1658
     20 N         145.5584  140.7677  163.2588 N.1     1  UNL1       -0.1907
     21 C         144.5449  141.8624  163.1016 C.1     1  UNL1        0.1034
     22 N         140.4910  146.2408  162.4720 N.pl3   1  UNL1       -0.3130
     23 H         140.7779  147.1825  162.4831 H       1  UNL1        0.1486
     24 C         139.0405  145.9005  162.2979 C.3     1  UNL1        0.1538
     25 C         138.5082  144.5981  162.8180 C.ar    1  UNL1        0.1428
     26 C         138.3395  144.2282  164.2618 C.ar    1  UNL1        0.0379
     27 C         137.7780  142.8385  164.3217 C.ar    1  UNL1        0.0435
     28 C         137.5998  142.3496  162.9149 C.ar    1  UNL1        0.1792
     29 O         138.0510  143.4371  161.9855 O.2     1  UNL1       -0.4530
@<TRIPOS>BOND
     1    20    21    3
     2    21     1    1
     3     1     2   ar
     4     2    16    1
     5    16    17    1
     6    16    18    1
     7    16    19    1
     8     2     3   ar
     9     3     4   ar
    10     4    22    1
    11    22    24    1
    12    24    25    1
    13    25    26   ar
    14    26    27   ar
    15    27    28   ar
    16    28    29   ar
    17     4     5   ar
    18     5     6   ar
    19     6     7   ar
    20     7     8   ar
    21     8     9   ar
    22     9    10   ar
    23    10    11    1
    24    10    12   ar
    25    12    13    1
    26    12    14   ar
    27    14    15   ar
    28     6     1   ar
    29    15     8   ar
    30    29    25   ar
    31    15     5   ar
    32    22    23    1
@<TRIPOS>MOLECULE
*****
 29 32 0 0 0
SMALL
GASTEIGER

@<TRIPOS>ATOM
      1 C         139.6157  140.1655  163.5037 C.ar    1  UNL1        0.1068
      2 C         140.4322  139.1271  162.7931 C.ar    1  UNL1        0.0867
      3 C         141.7432  138.6806  163.3691 C.ar    1  UNL1        0.0374
      4 C         142.2377  139.2725  164.6557 C.ar    1  UNL1        0.1144
      5 N         141.4212  140.3109  165.3662 N.ar    1  UNL1       -0.2782
      6 C         140.1101  140.7574  164.7902 C.ar    1  UNL1        0.1582
      7 N         139.5282  141.7906  165.7088 N.ar    1  UNL1       -0.2257
      8 C         140.4795  141.9826  166.8525 C.ar    1  UNL1        0.0999
      9 C         140.4316  142.8720  168.0594 C.ar    1  UNL1        0.0329
     10 C         141.5536  142.8469  169.0545 C.ar    1  UNL1        0.0698
     11 CL        141.5058  143.7364  170.2615 Cl      1  UNL1       -0.0813
     12 C         142.7236  141.9324  168.8428 C.ar    1  UNL1        0.0697
     13 CL        143.8457  141.9073  169.8380 Cl      1  UNL1       -0.0813
     14 C         142.7715  141.0430  167.6359 C.ar    1  UNL1        0.0314
     15 C         141.6495  141.0681  166.6408 C.ar    1  UNL1        0.0850
     16 C         139.9377  138.5352  161.5066 C.3     1  UNL1        0.4194
     17 F         139.4433  137.9433  160.2200 F       1  UNL1       -0.1658
     18 F         139.2273  137.4600  162.2743 F       1  UNL1       -0.1658
     19 F         140.6481  139.6104  160.7389 F       1  UNL1       -0.1658
     20 N         136.9935  141.0584  162.3517 N.1     1  UNL1       -0.1907
     21 C         138.3046  140.6120  162.9277 C.1     1  UNL1        0.1034
     22 N         143.5488  138.8259  165.2317 N.pl3   1  UNL1       -0.3130
     23 H         143.5650  138.2035  165.9943 H       1  UNL1        0.1486
     24 C         144.8352  139.3276  164.6456 C.3     1  UNL1        0.1538
     25 C         144.8529  140.6037  163.8574 C.ar    1  UNL1        0.1428
     26 C         144.6293  141.9819  164.4058 C.ar    1  UNL1        0.0379
     27 C         144.7354  142.9557  163.2698 C.ar    1  UNL1        0.0435
     28 C         145.0245  142.1793  162.0193 C.ar    1  UNL1        0.1792
     29 O         145.0971  140.7257  162.3825 O.2     1  UNL1       -0.4530
@<TRIPOS>BOND
     1    20    21    3
     2    21     1    1
     3     1     2   ar
     4     2    16    1
     5    16    17    1
     6    16    18    1
     7    16    19    1
     8     2     3   ar
     9     3     4   ar
    10     4    22    1
    11    22    24    1
    12    24    25    1
    13    25    26   ar
    14    26    27   ar
    15    27    28   ar
    16    28    29   ar
    17     4     5   ar
    18     5     6   ar
    19     6     7   ar
    20     7     8   ar
    21     8     9   ar
    22     9    10   ar
    23    10    11    1
    24    10    12   ar
    25    12    13    1
    26    12    14   ar
    27    14    15   ar
    28     6     1   ar
    29    15     8   ar
    30    29    25   ar
    31    15     5   ar
    32    22    23    1
@<TRIPOS>MOLECULE
*****
 29 32 0 0 0
SMALL
GASTEIGER

@<TRIPOS>ATOM
      1 C         143.5375  140.3469  163.7972 C.ar    1  UNL1        0.1068
      2 C         142.9506  139.3157  162.8796 C.ar    1  UNL1        0.0867
      3 C         141.7085  138.5759  163.2795 C.ar    1  UNL1        0.0374
      4 C         141.0533  138.8673  164.5970 C.ar    1  UNL1        0.1144
      5 N         141.6402  139.8985  165.5146 N.ar    1  UNL1       -0.2782
      6 C         142.8823  140.6383  165.1148 C.ar    1  UNL1        0.1582
      7 N         143.2287  141.5932  166.2185 N.ar    1  UNL1       -0.2257
      8 C         142.2006  141.4435  167.3006 C.ar    1  UNL1        0.0999
      9 C         142.0316  142.1256  168.6257 C.ar    1  UNL1        0.0329
     10 C         140.8809  141.7604  169.5159 C.ar    1  UNL1        0.0698
     11 CL        140.7119  142.4425  170.8411 Cl      1  UNL1       -0.0813
     12 C         139.8992  140.7130  169.0808 C.ar    1  UNL1        0.0697
     13 CL        138.7484  140.3477  169.9710 Cl      1  UNL1       -0.0813
     14 C         140.0682  140.0309  167.7557 C.ar    1  UNL1        0.0314
     15 C         141.2189  140.3962  166.8655 C.ar    1  UNL1        0.0850
     16 C         143.6058  139.0243  161.5621 C.3     1  UNL1        0.4194
     17 F         144.2609  138.7329  160.2445 F       1  UNL1       -0.1658
     18 F         142.8556  140.1631  160.9372 F       1  UNL1       -0.1658
     19 F         144.3559  137.8855  162.1870 F       1  UNL1       -0.1658
     20 N         146.0216  141.8266  162.9975 N.1     1  UNL1       -0.1907
     21 C         144.7796  141.0867  163.3974 C.1     1  UNL1        0.1034
     22 N         139.8112  138.1275  164.9968 N.pl3   1  UNL1       -0.3130
     23 H         139.8564  137.4259  165.6861 H       1  UNL1        0.1486
     24 C         138.5001  138.4565  164.3465 C.3     1  UNL1        0.1538
     25 C         138.2117  139.8622  163.9097 C.ar    1  UNL1        0.1428
     26 C         138.1369  141.0652  164.8026 C.ar    1  UNL1        0.0379
     27 C         137.8263  142.2582  163.9481 C.ar    1  UNL1        0.0435
     28 C         137.7092  141.7926  162.5270 C.ar    1  UNL1        0.1792
     29 O         137.9474  140.3118  162.5032 O.2     1  UNL1       -0.4530
@<TRIPOS>BOND
     1    20    21    3
     2    21     1    1
     3     1     2   ar
     4     2    16    1
     5    16    17    1
     6    16    18    1
     7    16    19    1
     8     2     3   ar
     9     3     4   ar
    10     4    22    1
    11    22    24    1
    12    24    25    1
    13    25    26   ar
    14    26    27   ar
    15    27    28   ar
    16    28    29   ar
    17     4     5   ar
    18     5     6   ar
    19     6     7   ar
    20     7     8   ar
    21     8     9   ar
    22     9    10   ar
    23    10    11    1
    24    10    12   ar
    25    12    13    1
    26    12    14   ar
    27    14    15   ar
    28     6     1   ar
    29    15     8   ar
    30    29    25   ar
    31    15     5   ar
    32    22    23    1
@<TRIPOS>MOLECULE
*****
 29 32 0 0 0
SMALL
GASTEIGER

@<TRIPOS>ATOM
      1 C         142.0780  141.5185  168.0130 C.ar    1  UNL1        0.1068
      2 C         140.9246  140.6781  168.4748 C.ar    1  UNL1        0.0867
      3 C         140.0457  139.9937  167.4702 C.ar    1  UNL1        0.0374
      4 C         140.3204  140.1497  166.0038 C.ar    1  UNL1        0.1144
      5 N         141.4738  140.9900  165.5420 N.ar    1  UNL1       -0.2782
      6 C         142.3527  141.6744  166.5466 C.ar    1  UNL1        0.1582
      7 N         143.4084  142.4330  165.7983 N.ar    1  UNL1       -0.2257
      8 C         143.1821  142.2174  164.3312 C.ar    1  UNL1        0.0999
      9 C         143.9102  142.7179  163.1191 C.ar    1  UNL1        0.0329
     10 C         143.4427  142.3267  161.7486 C.ar    1  UNL1        0.0698
     11 CL        144.1709  142.8272  160.5364 Cl      1  UNL1       -0.0813
     12 C         142.2471  141.4348  161.5902 C.ar    1  UNL1        0.0697
     13 CL        141.7796  141.0436  160.2196 Cl      1  UNL1       -0.0813
     14 C         141.5189  140.9343  162.8023 C.ar    1  UNL1        0.0314
     15 C         141.9864  141.3256  164.1728 C.ar    1  UNL1        0.0850
     16 C         140.6499  140.5222  169.9412 C.3     1  UNL1        0.4194
     17 F         140.3753  140.3662  171.4075 F       1  UNL1       -0.1658
     18 F         141.5387  139.3144  169.9792 F       1  UNL1       -0.1658
     19 F         139.7611  141.7299  169.9031 F       1  UNL1       -0.1658
     20 N         143.8356  142.8873  170.0223 N.1     1  UNL1       -0.1907
     21 C         142.9568  142.2029  169.0176 C.1     1  UNL1        0.1034
     22 N         139.4415  139.4652  164.9991 N.pl3   1  UNL1       -0.3130
     23 H         139.7388  138.6285  164.5741 H       1  UNL1        0.1486
     24 C         138.1096  140.0557  164.6422 C.3     1  UNL1        0.1538
     25 C         138.0386  141.3972  163.9749 C.ar    1  UNL1        0.1428
     26 C         138.0836  142.7285  164.6645 C.ar    1  UNL1        0.0379
     27 C         137.9830  143.7971  163.6166 C.ar    1  UNL1        0.0435
     28 C         137.8759  143.1261  162.2793 C.ar    1  UNL1        0.1792
     29 O         137.9102  141.6429  162.5007 O.2     1  UNL1       -0.4530
@<TRIPOS>BOND
     1    20    21    3
     2    21     1    1
     3     1     2   ar
     4     2    16    1
     5    16    17    1
     6    16    18    1
     7    16    19    1
     8     2     3   ar
     9     3     4   ar
    10     4    22    1
    11    22    24    1
    12    24    25    1
    13    25    26   ar
    14    26    27   ar
    15    27    28   ar
    16    28    29   ar
    17     4     5   ar
    18     5     6   ar
    19     6     7   ar
    20     7     8   ar
    21     8     9   ar
    22     9    10   ar
    23    10    11    1
    24    10    12   ar
    25    12    13    1
    26    12    14   ar
    27    14    15   ar
    28     6     1   ar
    29    15     8   ar
    30    29    25   ar
    31    15     5   ar
    32    22    23    1
@<TRIPOS>MOLECULE
*****
 29 32 0 0 0
SMALL
GASTEIGER

@<TRIPOS>ATOM
      1 C         141.2431  141.8401  168.4723 C.ar    1  UNL1        0.1068
      2 C         142.2581  140.7365  168.5159 C.ar    1  UNL1        0.0867
      3 C         142.9170  140.2732  167.2506 C.ar    1  UNL1        0.0374
      4 C         142.5611  140.9135  165.9416 C.ar    1  UNL1        0.1144
      5 N         141.5462  142.0171  165.8980 N.ar    1  UNL1       -0.2782
      6 C         140.8872  142.4804  167.1634 C.ar    1  UNL1        0.1582
      7 N         139.9309  143.5812  166.8117 N.ar    1  UNL1       -0.2257
      8 C         139.9988  143.7982  165.3290 C.ar    1  UNL1        0.0999
      9 C         139.2806  144.7511  164.4202 C.ar    1  UNL1        0.0329
     10 C         139.5607  144.7374  162.9467 C.ar    1  UNL1        0.0698
     11 CL        138.8424  145.6904  162.0377 Cl      1  UNL1       -0.0813
     12 C         140.5590  143.7707  162.3820 C.ar    1  UNL1        0.0697
     13 CL        140.8391  143.7570  160.9084 Cl      1  UNL1       -0.0813
     14 C         141.2772  142.8178  163.2908 C.ar    1  UNL1        0.0314
     15 C         140.9971  142.8316  164.7643 C.ar    1  UNL1        0.0850
     16 C         142.6140  140.0961  169.8249 C.3     1  UNL1        0.4194
     17 F         142.9699  139.4558  171.1338 F       1  UNL1       -0.1658
     18 F         143.7133  141.0986  170.0164 F       1  UNL1       -0.1658
     19 F         141.5147  139.0936  169.6334 F       1  UNL1       -0.1658
     20 N         139.9251  142.7667  171.0029 N.1     1  UNL1       -0.1907
     21 C         140.5842  142.3034  169.7377 C.1     1  UNL1        0.1034
     22 N         143.2202  140.4501  164.6763 N.pl3   1  UNL1       -0.3130
     23 H         144.0254  140.9090  164.3441 H       1  UNL1        0.1486
     24 C         142.6523  139.2877  163.9171 C.3     1  UNL1        0.1538
     25 C         141.2334  138.8608  164.1505 C.ar    1  UNL1        0.1428
     26 C         140.7929  137.5926  164.8196 C.ar    1  UNL1        0.0379
     27 C         139.2931  137.5752  164.8383 C.ar    1  UNL1        0.0435
     28 C         138.8067  138.8326  164.1808 C.ar    1  UNL1        0.1792
     29 O         140.0058  139.6271  163.7557 O.2     1  UNL1       -0.4530
@<TRIPOS>BOND
     1    20    21    3
     2    21     1    1
     3     1     2   ar
     4     2    16    1
     5    16    17    1
     6    16    18    1
     7    16    19    1
     8     2     3   ar
     9     3     4   ar
    10     4    22    1
    11    22    24    1
    12    24    25    1
    13    25    26   ar
    14    26    27   ar
    15    27    28   ar
    16    28    29   ar
    17     4     5   ar
    18     5     6   ar
    19     6     7   ar
    20     7     8   ar
    21     8     9   ar
    22     9    10   ar
    23    10    11    1
    24    10    12   ar
    25    12    13    1
    26    12    14   ar
    27    14    15   ar
    28     6     1   ar
    29    15     8   ar
    30    29    25   ar
    31    15     5   ar
    32    22    23    1
@<TRIPOS>MOLECULE
*****
 29 32 0 0 0
SMALL
GASTEIGER

@<TRIPOS>ATOM
      1 C         139.7447  143.0253  162.3783 C.ar    1  UNL1        0.1068
      2 C         138.4440  142.7233  163.0615 C.ar    1  UNL1        0.0867
      3 C         137.6311  141.5367  162.6360 C.ar    1  UNL1        0.0374
      4 C         138.1190  140.6520  161.5272 C.ar    1  UNL1        0.1144
      5 N         139.4197  140.9540  160.8440 N.ar    1  UNL1       -0.2782
      6 C         140.2326  142.1406  161.2695 C.ar    1  UNL1        0.1582
      7 N         141.4659  142.1874  160.4171 N.ar    1  UNL1       -0.2257
      8 C         141.4153  141.0297  159.4646 C.ar    1  UNL1        0.0999
      9 C         142.3574  140.5711  158.3912 C.ar    1  UNL1        0.0329
     10 C         142.0348  139.3502  157.5817 C.ar    1  UNL1        0.0698
     11 CL        142.9768  138.8916  156.5082 Cl      1  UNL1       -0.0813
     12 C         140.7701  138.5880  157.8455 C.ar    1  UNL1        0.0697
     13 CL        140.4476  137.3670  157.0359 Cl      1  UNL1       -0.0813
     14 C         139.8281  139.0465  158.9189 C.ar    1  UNL1        0.0314
     15 C         140.1507  140.2674  159.7285 C.ar    1  UNL1        0.0850
     16 C         137.9561  143.6080  164.1703 C.3     1  UNL1        0.4194
     17 F         137.4682  144.4926  165.2791 F       1  UNL1       -0.1658
     18 F         137.2568  144.4781  163.1684 F       1  UNL1       -0.1658
     19 F         138.6554  142.7378  165.1723 F       1  UNL1       -0.1658
     20 N         141.3705  145.3986  163.2293 N.1     1  UNL1       -0.1907
     21 C         140.5576  144.2119  162.8039 C.1     1  UNL1        0.1034
     22 N         137.3060  139.4653  161.1016 N.pl3   1  UNL1       -0.3130
     23 H         136.6003  139.5698  160.4232 H       1  UNL1        0.1486
     24 C         137.5685  138.1195  161.7098 C.3     1  UNL1        0.1538
     25 C         138.7897  137.9030  162.5534 C.ar    1  UNL1        0.1428
     26 C         138.8704  138.0561  164.0434 C.ar    1  UNL1        0.0379
     27 C         140.2752  137.7432  164.4662 C.ar    1  UNL1        0.0435
     28 C         141.0627  137.3968  163.2374 C.ar    1  UNL1        0.1792
     29 O         140.1446  137.4955  162.0553 O.2     1  UNL1       -0.4530
@<TRIPOS>BOND
     1    20    21    3
     2    21     1    1
     3     1     2   ar
     4     2    16    1
     5    16    17    1
     6    16    18    1
     7    16    19    1
     8     2     3   ar
     9     3     4   ar
    10     4    22    1
    11    22    24    1
    12    24    25    1
    13    25    26   ar
    14    26    27   ar
    15    27    28   ar
    16    28    29   ar
    17     4     5   ar
    18     5     6   ar
    19     6     7   ar
    20     7     8   ar
    21     8     9   ar
    22     9    10   ar
    23    10    11    1
    24    10    12   ar
    25    12    13    1
    26    12    14   ar
    27    14    15   ar
    28     6     1   ar
    29    15     8   ar
    30    29    25   ar
    31    15     5   ar
    32    22    23    1
