@<TRIPOS>MOLECULE
*****
 34 38 0 0 0
SMALL
GASTEIGER

@<TRIPOS>ATOM
      1 C         142.7724  140.8569  164.4640 C.ar    1  UNL1        0.0505
      2 C         143.5114  141.7617  165.4048 C.ar    1  UNL1        0.0178
      3 C         142.9942  141.9815  166.7955 C.ar    1  UNL1        0.0379
      4 C         141.7380  141.2965  167.2455 C.ar    1  UNL1        0.1361
      5 C         140.9989  140.3916  166.3048 C.ar    1  UNL1        0.0369
      6 C         141.5161  140.1718  164.9140 C.ar    1  UNL1        0.0153
      7 C         139.7426  139.7066  166.7548 C.3     1  UNL1        0.1581
      8 C         138.4798  138.9574  167.0616 C.3     1  UNL1        0.2351
      9 O         138.0933  138.1798  165.8384 O.2     1  UNL1       -0.4478
     10 C         139.1172  138.4484  164.7757 C.2     1  UNL1        0.2770
     11 N         139.1212  137.8742  163.3900 N.pl3   1  UNL1       -0.3133
     12 N         140.1366  139.3920  165.3420 N.2     1  UNL1       -0.2202
     13 C         139.2254  139.9263  168.1455 C.3     1  UNL1        0.1141
     14 C         139.5759  140.1175  168.0199 C.3     1  UNL1        0.1501
     15 O         139.2075  139.9166  168.1519 O.3     1  UNL1       -0.3532
     16 C         139.5759  140.1175  168.0199 C.3     1  UNL1        0.1501
     17 C         139.9645  140.8312  169.0862 C.3     1  UNL1        0.1398
     18 C         140.3087  141.5896  170.3337 C.3     1  UNL1        0.0438
     19 C         138.8277  140.4095  169.9695 C.3     1  UNL1        0.0438
     20 O         141.2207  141.5162  168.6362 O.3     1  UNL1       -0.4826
     21 H         138.4047  137.2600  163.1096 H       1  UNL1        0.1466
     22 H         139.8403  138.1117  162.7608 H       1  UNL1        0.1466
     23 C         143.0226  141.6548  162.0042 C.2     1  UNL1        0.2688
     24 O         142.2383  142.8923  162.3258 O.2     1  UNL1       -0.2681
     25 N         143.2896  140.6371  163.0733 N.am    1  UNL1       -0.2791
     26 H         143.8044  139.8248  162.8622 H       1  UNL1        0.1552
     27 C         144.5744  140.9954  157.8320 C.ar    1  UNL1        0.2449
     28 C         144.5324  142.3804  158.4064 C.ar    1  UNL1        0.1565
     29 N         144.0152  142.6002  159.7971 N.ar    1  UNL1       -0.2328
     30 C         143.5399  141.4349  160.6134 C.ar    1  UNL1        0.1541
     31 C         143.5818  140.0500  160.0390 C.ar    1  UNL1        0.1258
     32 N         144.0990  139.8302  158.6483 N.ar    1  UNL1       -0.2071
     33 C         146.3181  141.5016  155.9738 C.3     1  UNL1        0.2543
     34 O         145.0916  140.7756  156.4413 O.3     1  UNL1       -0.4551
@<TRIPOS>BOND
     1    33    34    1
     2    34    27    1
     3    27    28   ar
     4    28    29   ar
     5    29    30   ar
     6    30    23    1
     7    23    24    2
     8    23    25   am
     9    25     1    1
    10     1     2   ar
    11     2     3   ar
    12     3     4   ar
    13     4     5   ar
    14     5     6   ar
    15     5     7    1
    16     7     8    1
    17     8     9    1
    18     9    10    1
    19    10    11    1
    20    10    12    2
    21     7    13    1
    22    13    14    1
    23    14    15    1
    24    15    16    1
    25    13    17    1
    26    17    18    1
    27    17    19    1
    28    17    20    1
    29    30    31   ar
    30    31    32   ar
    31    32    27   ar
    32     6     1   ar
    33    12     7    1
    34    16    13    1
    35    20     4    1
    36    25    26    1
    37    11    21    1
    38    11    22    1
@<TRIPOS>MOLECULE
*****
 34 38 0 0 0
SMALL
GASTEIGER

@<TRIPOS>ATOM
      1 C         142.1649  142.5187  164.1383 C.ar    1  UNL1        0.0505
      2 C         143.3996  142.9314  164.8834 C.ar    1  UNL1        0.0178
      3 C         143.5849  142.5203  166.3140 C.ar    1  UNL1        0.0379
      4 C         142.5355  141.6963  166.9995 C.ar    1  UNL1        0.1361
      5 C         141.3009  141.2835  166.2544 C.ar    1  UNL1        0.0369
      6 C         141.1155  141.6947  164.8238 C.ar    1  UNL1        0.0153
      7 C         140.2515  140.4595  166.9399 C.3     1  UNL1        0.1581
      8 C         139.1221  139.6400  167.4903 C.3     1  UNL1        0.2351
      9 O         138.1020  139.4677  166.4041 O.2     1  UNL1       -0.4478
     10 C         138.6008  140.1808  165.1824 C.2     1  UNL1        0.2770
     11 N         137.8953  140.2660  163.8616 N.pl3   1  UNL1       -0.3133
     12 N         139.9293  140.7938  165.5135 N.2     1  UNL1       -0.2202
     13 C         140.4368  140.0484  168.3705 C.3     1  UNL1        0.1141
     14 C         140.7295  140.2783  168.1792 C.3     1  UNL1        0.1501
     15 O         140.4218  140.0366  168.3802 O.3     1  UNL1       -0.3532
     16 C         140.7295  140.2783  168.1792 C.3     1  UNL1        0.1501
     17 C         141.6714  140.4612  169.1155 C.3     1  UNL1        0.1398
     18 C         142.6609  140.6051  170.2336 C.3     1  UNL1        0.0438
     19 C         140.9657  139.6872  170.1894 C.3     1  UNL1        0.0438
     20 O         142.7208  141.2851  168.4301 O.3     1  UNL1       -0.4826
     21 H         137.0218  139.8282  163.7409 H       1  UNL1        0.1466
     22 H         138.3056  140.7598  163.1152 H       1  UNL1        0.1466
     23 C         141.4768  144.3049  162.3817 C.2     1  UNL1        0.2688
     24 O         141.1593  145.2689  163.4862 O.2     1  UNL1       -0.2681
     25 N         141.9796  142.9298  162.7077 N.am    1  UNL1       -0.2791
     26 H         142.1880  142.2972  161.9828 H       1  UNL1        0.1552
     27 C         140.9211  145.5383  158.0898 C.ar    1  UNL1        0.2449
     28 C         142.1028  144.7022  158.4829 C.ar    1  UNL1        0.1565
     29 N         142.2880  144.2910  159.9135 N.ar    1  UNL1       -0.2328
     30 C         141.2916  144.7161  160.9510 C.ar    1  UNL1        0.1541
     31 C         140.1099  145.5522  160.5580 C.ar    1  UNL1        0.1258
     32 N         139.9247  145.9634  159.1274 N.ar    1  UNL1       -0.2071
     33 C         139.5504  146.7797  156.2649 C.3     1  UNL1        0.2543
     34 O         140.7359  145.9495  156.6592 O.3     1  UNL1       -0.4551
@<TRIPOS>BOND
     1    33    34    1
     2    34    27    1
     3    27    28   ar
     4    28    29   ar
     5    29    30   ar
     6    30    23    1
     7    23    24    2
     8    23    25   am
     9    25     1    1
    10     1     2   ar
    11     2     3   ar
    12     3     4   ar
    13     4     5   ar
    14     5     6   ar
    15     5     7    1
    16     7     8    1
    17     8     9    1
    18     9    10    1
    19    10    11    1
    20    10    12    2
    21     7    13    1
    22    13    14    1
    23    14    15    1
    24    15    16    1
    25    13    17    1
    26    17    18    1
    27    17    19    1
    28    17    20    1
    29    30    31   ar
    30    31    32   ar
    31    32    27   ar
    32     6     1   ar
    33    12     7    1
    34    16    13    1
    35    20     4    1
    36    25    26    1
    37    11    21    1
    38    11    22    1
@<TRIPOS>MOLECULE
*****
 34 38 0 0 0
SMALL
GASTEIGER

@<TRIPOS>ATOM
      1 C         139.2198  139.9722  164.6719 C.ar    1  UNL1        0.0505
      2 C         138.2142  139.2149  165.4876 C.ar    1  UNL1        0.0178
      3 C         138.3525  139.1532  166.9799 C.ar    1  UNL1        0.0379
      4 C         139.4962  139.8489  167.6566 C.ar    1  UNL1        0.1361
      5 C         140.5018  140.6062  166.8409 C.ar    1  UNL1        0.0369
      6 C         140.3635  140.6679  165.3485 C.ar    1  UNL1        0.0153
      7 C         141.6455  141.3018  167.5176 C.3     1  UNL1        0.1581
      8 C         142.8354  142.0431  168.0512 C.3     1  UNL1        0.2351
      9 O         143.5630  142.6503  166.8884 O.2     1  UNL1       -0.4478
     10 C         142.8229  142.2843  165.6362 C.2     1  UNL1        0.2770
     11 N         143.2013  142.6818  164.2403 N.pl3   1  UNL1       -0.3133
     12 N         141.6378  141.4509  166.0249 N.2     1  UNL1       -0.2202
     13 C         141.7838  141.2402  169.0099 C.3     1  UNL1        0.1141
     14 C         141.4647  141.0461  168.8211 C.3     1  UNL1        0.1501
     15 O         141.8001  141.2501  169.0195 O.3     1  UNL1       -0.3532
     16 C         141.4647  141.0461  168.8211 C.3     1  UNL1        0.1501
     17 C         140.7782  140.4829  169.8255 C.3     1  UNL1        0.1398
     18 C         140.0866  139.8964  171.0204 C.3     1  UNL1        0.0438
     19 C         141.6818  140.9748  170.9172 C.3     1  UNL1        0.0438
     20 O         139.6345  139.7872  169.1489 O.3     1  UNL1       -0.4826
     21 H         144.0018  143.2336  164.0855 H       1  UNL1        0.1466
     22 H         142.6492  142.3909  163.4788 H       1  UNL1        0.1466
     23 C         138.3356  141.1682  162.5417 C.2     1  UNL1        0.2688
     24 O         137.7279  142.2408  163.3961 O.2     1  UNL1       -0.2681
     25 N         139.0815  140.0339  163.1796 N.am    1  UNL1       -0.2791
     26 H         139.4804  139.3299  162.6188 H       1  UNL1        0.1552
     27 C         137.9209  141.3532  158.0647 C.ar    1  UNL1        0.2449
     28 C         138.4092  142.5518  158.8228 C.ar    1  UNL1        0.1565
     29 N         138.5474  142.4902  160.3151 N.ar    1  UNL1       -0.2328
     30 C         138.1973  141.2298  161.0493 C.ar    1  UNL1        0.1541
     31 C         137.7091  140.0312  160.2912 C.ar    1  UNL1        0.1258
     32 N         137.5709  140.0928  158.7989 N.ar    1  UNL1       -0.2071
     33 C         136.4409  141.2089  155.9342 C.3     1  UNL1        0.2543
     34 O         137.7827  141.4148  156.5723 O.3     1  UNL1       -0.4551
@<TRIPOS>BOND
     1    33    34    1
     2    34    27    1
     3    27    28   ar
     4    28    29   ar
     5    29    30   ar
     6    30    23    1
     7    23    24    2
     8    23    25   am
     9    25     1    1
    10     1     2   ar
    11     2     3   ar
    12     3     4   ar
    13     4     5   ar
    14     5     6   ar
    15     5     7    1
    16     7     8    1
    17     8     9    1
    18     9    10    1
    19    10    11    1
    20    10    12    2
    21     7    13    1
    22    13    14    1
    23    14    15    1
    24    15    16    1
    25    13    17    1
    26    17    18    1
    27    17    19    1
    28    17    20    1
    29    30    31   ar
    30    31    32   ar
    31    32    27   ar
    32     6     1   ar
    33    12     7    1
    34    16    13    1
    35    20     4    1
    36    25    26    1
    37    11    21    1
    38    11    22    1
@<TRIPOS>MOLECULE
*****
 34 38 0 0 0
SMALL
GASTEIGER

@<TRIPOS>ATOM
      1 C         140.7239  142.6743  164.4419 C.ar    1  UNL1        0.0505
      2 C         140.0156  143.4665  165.5006 C.ar    1  UNL1        0.0178
      3 C         140.1268  143.0616  166.9406 C.ar    1  UNL1        0.0379
      4 C         140.9462  141.8644  167.3220 C.ar    1  UNL1        0.1361
      5 C         141.6544  141.0722  166.2633 C.ar    1  UNL1        0.0369
      6 C         141.5433  141.4771  164.8232 C.ar    1  UNL1        0.0153
      7 C         142.4738  139.8750  166.6447 C.3     1  UNL1        0.1581
      8 C         143.3247  138.6611  166.8732 C.3     1  UNL1        0.2351
      9 O         143.8323  138.1934  165.5413 O.2     1  UNL1       -0.4478
     10 C         143.2951  139.1184  164.4897 C.2     1  UNL1        0.2770
     11 N         143.5523  139.0211  163.0152 N.pl3   1  UNL1       -0.3133
     12 N         142.4555  140.1577  165.1716 N.2     1  UNL1       -0.2202
     13 C         142.5849  139.4701  168.0847 C.3     1  UNL1        0.1141
     14 C         142.3563  139.8041  167.9783 C.3     1  UNL1        0.1501
     15 O         142.5966  139.4530  168.0901 O.3     1  UNL1       -0.3532
     16 C         142.3563  139.8041  167.9783 C.3     1  UNL1        0.1501
     17 C         141.8767  140.2623  169.1433 C.3     1  UNL1        0.1398
     18 C         141.3949  140.6903  170.4978 C.3     1  UNL1        0.0438
     19 C         142.5288  139.2138  169.9952 C.3     1  UNL1        0.0438
     20 O         141.0573  141.4595  168.7620 O.3     1  UNL1       -0.4826
     21 H         144.1204  138.2992  162.6612 H       1  UNL1        0.1466
     22 H         143.1530  139.6793  162.4015 H       1  UNL1        0.1466
     23 C         141.5673  144.0850  162.4298 C.2     1  UNL1        0.2688
     24 O         142.6330  144.6858  163.2977 O.2     1  UNL1       -0.2681
     25 N         140.6128  143.0792  163.0019 N.am    1  UNL1       -0.2791
     26 H         139.9133  142.6849  162.4322 H       1  UNL1        0.1552
     27 C         141.2338  145.2997  158.1097 C.ar    1  UNL1        0.2449
     28 C         142.3790  144.4428  158.5616 C.ar    1  UNL1        0.1565
     29 N         142.4901  144.0379  160.0016 N.ar    1  UNL1       -0.2328
     30 C         141.4561  144.4899  160.9897 C.ar    1  UNL1        0.1541
     31 C         140.3109  145.3469  160.5379 C.ar    1  UNL1        0.1258
     32 N         140.1998  145.7518  159.0979 N.ar    1  UNL1       -0.2071
     33 C         139.8959  146.4182  156.1838 C.3     1  UNL1        0.2543
     34 O         141.1226  145.7046  156.6696 O.3     1  UNL1       -0.4551
@<TRIPOS>BOND
     1    33    34    1
     2    34    27    1
     3    27    28   ar
     4    28    29   ar
     5    29    30   ar
     6    30    23    1
     7    23    24    2
     8    23    25   am
     9    25     1    1
    10     1     2   ar
    11     2     3   ar
    12     3     4   ar
    13     4     5   ar
    14     5     6   ar
    15     5     7    1
    16     7     8    1
    17     8     9    1
    18     9    10    1
    19    10    11    1
    20    10    12    2
    21     7    13    1
    22    13    14    1
    23    14    15    1
    24    15    16    1
    25    13    17    1
    26    17    18    1
    27    17    19    1
    28    17    20    1
    29    30    31   ar
    30    31    32   ar
    31    32    27   ar
    32     6     1   ar
    33    12     7    1
    34    16    13    1
    35    20     4    1
    36    25    26    1
    37    11    21    1
    38    11    22    1
@<TRIPOS>MOLECULE
*****
 34 38 0 0 0
SMALL
GASTEIGER

@<TRIPOS>ATOM
      1 C         140.2060  138.3724  164.1750 C.ar    1  UNL1        0.0505
      2 C         138.9496  137.7462  164.7037 C.ar    1  UNL1        0.0178
      3 C         138.4430  138.1162  166.0662 C.ar    1  UNL1        0.0379
      4 C         139.1927  139.1124  166.9001 C.ar    1  UNL1        0.1361
      5 C         140.4491  139.7386  166.3715 C.ar    1  UNL1        0.0369
      6 C         140.9557  139.3686  165.0089 C.ar    1  UNL1        0.0153
      7 C         141.1989  140.7348  167.2054 C.3     1  UNL1        0.1581
      8 C         142.0509  141.7410  167.9206 C.3     1  UNL1        0.2351
      9 O         143.2025  142.0928  167.0260 O.2     1  UNL1       -0.4478
     10 C         143.0621  141.3041  165.7579 C.2     1  UNL1        0.2770
     11 N         143.9960  141.3470  164.5849 N.pl3   1  UNL1       -0.3133
     12 N         141.8238  140.4647  165.8687 N.2     1  UNL1       -0.2202
     13 C         140.6923  141.1048  168.5679 C.3     1  UNL1        0.1141
     14 C         140.4831  140.8269  168.3352 C.3     1  UNL1        0.1501
     15 O         140.7030  141.1190  168.5798 O.3     1  UNL1       -0.3532
     16 C         140.4831  140.8269  168.3352 C.3     1  UNL1        0.1501
     17 C         139.4359  140.4786  169.0965 C.3     1  UNL1        0.1398
     18 C         138.3034  140.1601  170.0269 C.3     1  UNL1        0.0438
     19 C         139.7924  141.3642  170.2536 C.3     1  UNL1        0.0438
     20 O         138.6862  139.4824  168.2625 O.3     1  UNL1       -0.4826
     21 H         144.7868  141.9330  164.6065 H       1  UNL1        0.1466
     22 H         143.8181  140.7892  163.7935 H       1  UNL1        0.1466
     23 C         140.5115  138.9385  161.6579 C.2     1  UNL1        0.2688
     24 O         139.8040  140.2446  161.8657 O.2     1  UNL1       -0.2681
     25 N         140.7125  138.0023  162.8125 N.am    1  UNL1       -0.2791
     26 H         141.1770  137.1451  162.6761 H       1  UNL1        0.1552
     27 C         142.0313  137.8283  157.5704 C.ar    1  UNL1        0.2449
     28 C         140.5869  138.1845  157.7622 C.ar    1  UNL1        0.1565
     29 N         140.0803  138.5545  159.1247 N.ar    1  UNL1       -0.2328
     30 C         141.0182  138.5684  160.2953 C.ar    1  UNL1        0.1541
     31 C         142.4625  138.2122  160.1034 C.ar    1  UNL1        0.1258
     32 N         142.9691  137.8421  158.7410 N.ar    1  UNL1       -0.2071
     33 C         143.4751  136.2983  156.0457 C.3     1  UNL1        0.2543
     34 O         142.5379  137.4582  156.2078 O.3     1  UNL1       -0.4551
@<TRIPOS>BOND
     1    33    34    1
     2    34    27    1
     3    27    28   ar
     4    28    29   ar
     5    29    30   ar
     6    30    23    1
     7    23    24    2
     8    23    25   am
     9    25     1    1
    10     1     2   ar
    11     2     3   ar
    12     3     4   ar
    13     4     5   ar
    14     5     6   ar
    15     5     7    1
    16     7     8    1
    17     8     9    1
    18     9    10    1
    19    10    11    1
    20    10    12    2
    21     7    13    1
    22    13    14    1
    23    14    15    1
    24    15    16    1
    25    13    17    1
    26    17    18    1
    27    17    19    1
    28    17    20    1
    29    30    31   ar
    30    31    32   ar
    31    32    27   ar
    32     6     1   ar
    33    12     7    1
    34    16    13    1
    35    20     4    1
    36    25    26    1
    37    11    21    1
    38    11    22    1
@<TRIPOS>MOLECULE
*****
 34 38 0 0 0
SMALL
GASTEIGER

@<TRIPOS>ATOM
      1 C         140.4842  144.9742  162.3315 C.ar    1  UNL1        0.0505
      2 C         139.2332  145.0936  163.1507 C.ar    1  UNL1        0.0178
      3 C         139.1762  144.4940  164.5244 C.ar    1  UNL1        0.0379
      4 C         140.3701  143.7750  165.0791 C.ar    1  UNL1        0.1361
      5 C         141.6210  143.6556  164.2600 C.ar    1  UNL1        0.0369
      6 C         141.6781  144.2552  162.8862 C.ar    1  UNL1        0.0153
      7 C         142.8149  142.9366  164.8147 C.3     1  UNL1        0.1581
      8 C         144.0812  142.2504  165.2339 C.3     1  UNL1        0.2351
      9 O         145.0681  142.3721  164.1108 O.2     1  UNL1       -0.4478
     10 C         144.4118  143.1334  162.9975 C.2     1  UNL1        0.2770
     11 N         145.0380  143.4843  161.6804 N.pl3   1  UNL1       -0.3133
     12 N         143.0192  143.4823  163.4324 N.2     1  UNL1       -0.2202
     13 C         142.7579  142.3370  166.1884 C.3     1  UNL1        0.1141
     14 C         142.4248  142.5376  166.0336 C.3     1  UNL1        0.1501
     15 O         142.7749  142.3267  166.1963 O.3     1  UNL1       -0.3532
     16 C         142.4248  142.5376  166.0336 C.3     1  UNL1        0.1501
     17 C         141.5070  142.4564  167.0074 C.3     1  UNL1        0.1398
     18 C         140.5560  142.3082  168.1580 C.3     1  UNL1        0.0438
     19 C         142.3706  141.6858  167.9617 C.3     1  UNL1        0.0438
     20 O         140.3131  143.1754  166.4528 O.3     1  UNL1       -0.4826
     21 H         145.9632  143.2095  161.4865 H       1  UNL1        0.1466
     22 H         144.5237  143.9894  161.0099 H       1  UNL1        0.1466
     23 C         140.3557  144.7027  159.7509 C.2     1  UNL1        0.2688
     24 O         140.1131  143.2319  159.9177 O.2     1  UNL1       -0.2681
     25 N         140.5412  145.5739  160.9578 N.am    1  UNL1       -0.2791
     26 H         140.7004  146.5392  160.8483 H       1  UNL1        0.1552
     27 C         140.5267  146.5017  155.6297 C.ar    1  UNL1        0.2449
     28 C         139.5530  147.0322  156.6398 C.ar    1  UNL1        0.1565
     29 N         139.4960  146.4326  158.0135 N.ar    1  UNL1       -0.2328
     30 C         140.4127  145.3024  158.3771 C.ar    1  UNL1        0.1541
     31 C         141.3864  144.7718  157.3670 C.ar    1  UNL1        0.1258
     32 N         141.4434  145.3715  155.9933 N.ar    1  UNL1       -0.2071
     33 C         141.4065  146.4474  153.1857 C.3     1  UNL1        0.2543
     34 O         140.5837  147.1014  154.2560 O.3     1  UNL1       -0.4551
@<TRIPOS>BOND
     1    33    34    1
     2    34    27    1
     3    27    28   ar
     4    28    29   ar
     5    29    30   ar
     6    30    23    1
     7    23    24    2
     8    23    25   am
     9    25     1    1
    10     1     2   ar
    11     2     3   ar
    12     3     4   ar
    13     4     5   ar
    14     5     6   ar
    15     5     7    1
    16     7     8    1
    17     8     9    1
    18     9    10    1
    19    10    11    1
    20    10    12    2
    21     7    13    1
    22    13    14    1
    23    14    15    1
    24    15    16    1
    25    13    17    1
    26    17    18    1
    27    17    19    1
    28    17    20    1
    29    30    31   ar
    30    31    32   ar
    31    32    27   ar
    32     6     1   ar
    33    12     7    1
    34    16    13    1
    35    20     4    1
    36    25    26    1
    37    11    21    1
    38    11    22    1
@<TRIPOS>MOLECULE
*****
 34 38 0 0 0
SMALL
GASTEIGER

@<TRIPOS>ATOM
      1 C         141.9969  141.1106  164.3136 C.ar    1  UNL1        0.0505
      2 C         143.1984  141.9785  164.5444 C.ar    1  UNL1        0.0178
      3 C         143.5389  142.4344  165.9322 C.ar    1  UNL1        0.0379
      4 C         142.6778  142.0224  167.0894 C.ar    1  UNL1        0.1361
      5 C         141.4764  141.1546  166.8586 C.ar    1  UNL1        0.0369
      6 C         141.1359  140.6986  165.4707 C.ar    1  UNL1        0.0153
      7 C         140.6154  140.7426  168.0157 C.3     1  UNL1        0.1581
      8 C         139.6660  140.2530  169.0688 C.3     1  UNL1        0.2351
      9 O         138.6162  139.4197  168.3953 O.2     1  UNL1       -0.4478
     10 C         138.9167  139.3943  166.9260 C.2     1  UNL1        0.2770
     11 N         138.1214  138.6773  165.8757 N.pl3   1  UNL1       -0.3133
     12 N         140.1523  140.2119  166.6913 N.2     1  UNL1       -0.2202
     13 C         140.9558  141.1985  169.4036 C.3     1  UNL1        0.1141
     14 C         141.1960  141.3135  169.0808 C.3     1  UNL1        0.1501
     15 O         140.9435  141.1927  169.4201 O.3     1  UNL1       -0.3532
     16 C         141.1960  141.3135  169.0808 C.3     1  UNL1        0.1501
     17 C         142.1572  142.0664  169.6343 C.3     1  UNL1        0.1398
     18 C         143.1834  142.8906  170.3538 C.3     1  UNL1        0.0438
     19 C         141.6526  141.9407  171.0414 C.3     1  UNL1        0.0438
     20 O         143.0182  142.4784  168.4772 O.3     1  UNL1       -0.4826
     21 H         137.3208  138.1637  166.1295 H       1  UNL1        0.1466
     22 H         138.4000  138.7202  164.9324 H       1  UNL1        0.1466
     23 C         142.2986  139.4215  162.3627 C.2     1  UNL1        0.2688
     24 O         143.2812  138.6442  163.1876 O.2     1  UNL1       -0.2681
     25 N         141.6565  140.6546  162.9257 N.am    1  UNL1       -0.2791
     26 H         141.0116  141.1648  162.3843 H       1  UNL1        0.1552
     27 C         141.2774  138.0538  158.1990 C.ar    1  UNL1        0.2449
     28 C         142.6899  137.9579  158.6946 C.ar    1  UNL1        0.1565
     29 N         143.0303  138.4138  160.0825 N.ar    1  UNL1       -0.2328
     30 C         141.9582  138.9656  160.9748 C.ar    1  UNL1        0.1541
     31 C         140.5457  139.0615  160.4792 C.ar    1  UNL1        0.1258
     32 N         140.2053  138.6056  159.0913 N.ar    1  UNL1       -0.2071
     33 C         141.6027  136.3828  156.2363 C.3     1  UNL1        0.2543
     34 O         140.9369  137.5979  156.8111 O.3     1  UNL1       -0.4551
@<TRIPOS>BOND
     1    33    34    1
     2    34    27    1
     3    27    28   ar
     4    28    29   ar
     5    29    30   ar
     6    30    23    1
     7    23    24    2
     8    23    25   am
     9    25     1    1
    10     1     2   ar
    11     2     3   ar
    12     3     4   ar
    13     4     5   ar
    14     5     6   ar
    15     5     7    1
    16     7     8    1
    17     8     9    1
    18     9    10    1
    19    10    11    1
    20    10    12    2
    21     7    13    1
    22    13    14    1
    23    14    15    1
    24    15    16    1
    25    13    17    1
    26    17    18    1
    27    17    19    1
    28    17    20    1
    29    30    31   ar
    30    31    32   ar
    31    32    27   ar
    32     6     1   ar
    33    12     7    1
    34    16    13    1
    35    20     4    1
    36    25    26    1
    37    11    21    1
    38    11    22    1
@<TRIPOS>MOLECULE
*****
 34 38 0 0 0
SMALL
GASTEIGER

@<TRIPOS>ATOM
      1 C         138.9050  143.0763  162.6166 C.ar    1  UNL1        0.0505
      2 C         139.3197  144.2752  163.4171 C.ar    1  UNL1        0.0178
      3 C         139.7039  144.1182  164.8585 C.ar    1  UNL1        0.0379
      4 C         139.6733  142.7623  165.4995 C.ar    1  UNL1        0.1361
      5 C         139.2586  141.5635  164.6990 C.ar    1  UNL1        0.0369
      6 C         138.8744  141.7205  163.2575 C.ar    1  UNL1        0.0153
      7 C         139.2280  140.2077  165.3399 C.3     1  UNL1        0.1581
      8 C         139.1494  138.7964  165.8420 C.3     1  UNL1        0.2351
      9 O         138.6919  137.9261  164.7091 O.2     1  UNL1       -0.4478
     10 C         138.4877  138.7995  163.5069 C.2     1  UNL1        0.2770
     11 N         138.0322  138.3431  162.1527 N.pl3   1  UNL1       -0.3133
     12 N         138.8191  140.2096  163.8967 N.2     1  UNL1       -0.2202
     13 C         139.6122  140.0507  166.7813 C.3     1  UNL1        0.1141
     14 C         139.6207  140.4290  166.6025 C.3     1  UNL1        0.1501
     15 O         139.6117  140.0313  166.7905 O.3     1  UNL1       -0.3532
     16 C         139.6207  140.4290  166.6025 C.3     1  UNL1        0.1501
     17 C         140.0269  141.2495  167.5818 C.3     1  UNL1        0.1398
     18 C         140.4864  142.0772  168.7453 C.3     1  UNL1        0.0438
     19 C         140.1560  140.1811  168.6269 C.3     1  UNL1        0.0438
     20 O         140.0575  142.6053  166.9409 O.3     1  UNL1       -0.4826
     21 H         137.8381  137.3911  161.9936 H       1  UNL1        0.1466
     22 H         137.9274  138.9954  161.4228 H       1  UNL1        0.1466
     23 C         139.5720  143.1667  160.1072 C.2     1  UNL1        0.2688
     24 O         141.0074  142.9431  160.4807 O.2     1  UNL1       -0.2681
     25 N         138.5208  143.2334  161.1751 N.am    1  UNL1       -0.2791
     26 H         137.5787  143.3802  160.9300 H       1  UNL1        0.1552
     27 C         138.4195  143.6379  155.7829 C.ar    1  UNL1        0.2449
     28 C         139.5234  144.4733  156.3602 C.ar    1  UNL1        0.1565
     29 N         139.9076  144.3163  157.8016 N.ar    1  UNL1       -0.2328
     30 C         139.1878  143.3237  158.6657 C.ar    1  UNL1        0.1541
     31 C         138.0839  142.4883  158.0885 C.ar    1  UNL1        0.1258
     32 N         137.6997  142.6453  156.6471 N.ar    1  UNL1       -0.2071
     33 C         139.0919  143.7732  153.2770 C.3     1  UNL1        0.2543
     34 O         138.0353  143.7949  154.3415 O.3     1  UNL1       -0.4551
@<TRIPOS>BOND
     1    33    34    1
     2    34    27    1
     3    27    28   ar
     4    28    29   ar
     5    29    30   ar
     6    30    23    1
     7    23    24    2
     8    23    25   am
     9    25     1    1
    10     1     2   ar
    11     2     3   ar
    12     3     4   ar
    13     4     5   ar
    14     5     6   ar
    15     5     7    1
    16     7     8    1
    17     8     9    1
    18     9    10    1
    19    10    11    1
    20    10    12    2
    21     7    13    1
    22    13    14    1
    23    14    15    1
    24    15    16    1
    25    13    17    1
    26    17    18    1
    27    17    19    1
    28    17    20    1
    29    30    31   ar
    30    31    32   ar
    31    32    27   ar
    32     6     1   ar
    33    12     7    1
    34    16    13    1
    35    20     4    1
    36    25    26    1
    37    11    21    1
    38    11    22    1
@<TRIPOS>MOLECULE
*****
 34 38 0 0 0
SMALL
GASTEIGER

@<TRIPOS>ATOM
      1 C         141.3416  141.7443  164.4582 C.ar    1  UNL1        0.0505
      2 C         140.4990  142.9725  164.6363 C.ar    1  UNL1        0.0178
      3 C         140.1144  143.4250  166.0138 C.ar    1  UNL1        0.0379
      4 C         140.5724  142.6493  167.2132 C.ar    1  UNL1        0.1361
      5 C         141.4150  141.4211  167.0351 C.ar    1  UNL1        0.0369
      6 C         141.7996  140.9686  165.6576 C.ar    1  UNL1        0.0153
      7 C         141.8730  140.6455  168.2345 C.3     1  UNL1        0.1581
      8 C         142.4026  139.7726  169.3335 C.3     1  UNL1        0.2351
      9 O         143.1908  138.6621  168.7044 O.2     1  UNL1       -0.4478
     10 C         143.1485  138.8487  167.2166 C.2     1  UNL1        0.2770
     11 N         143.8052  137.9649  166.1982 N.pl3   1  UNL1       -0.3133
     12 N         142.3340  140.0745  166.9262 N.2     1  UNL1       -0.2202
     13 C         141.4884  141.0979  169.6119 C.3     1  UNL1        0.1141
     14 C         141.3606  141.3143  169.2773 C.3     1  UNL1        0.1501
     15 O         141.4950  141.0868  169.6291 O.3     1  UNL1       -0.3532
     16 C         141.3606  141.3143  169.2773 C.3     1  UNL1        0.1501
     17 C         140.6459  142.3260  169.7900 C.3     1  UNL1        0.1398
     18 C         139.8686  143.4162  170.4662 C.3     1  UNL1        0.0438
     19 C         140.8339  141.9290  171.2243 C.3     1  UNL1        0.0438
     20 O         140.1879  143.1017  168.5906 O.3     1  UNL1       -0.4826
     21 H         144.3217  137.1787  166.4885 H       1  UNL1        0.1466
     22 H         143.7197  138.1710  165.2393 H       1  UNL1        0.1466
     23 C         142.9732  141.8226  162.4379 C.2     1  UNL1        0.2688
     24 O         143.8356  142.8057  163.1724 O.2     1  UNL1       -0.2681
     25 N         141.7261  141.2919  163.0808 N.am    1  UNL1       -0.2791
     26 H         141.1601  140.6466  162.5987 H       1  UNL1        0.1552
     27 C         144.1267  140.4651  158.3055 C.ar    1  UNL1        0.2449
     28 C         143.4654  139.5077  159.2521 C.ar    1  UNL1        0.1565
     29 N         143.0809  139.9602  160.6296 N.ar    1  UNL1       -0.2328
     30 C         143.3577  141.3701  161.0604 C.ar    1  UNL1        0.1541
     31 C         144.0190  142.3275  160.1138 C.ar    1  UNL1        0.1258
     32 N         144.4035  141.8749  158.7364 N.ar    1  UNL1       -0.2071
     33 C         143.4559  139.5435  155.9708 C.3     1  UNL1        0.2543
     34 O         144.5112  140.0126  156.9280 O.3     1  UNL1       -0.4551
@<TRIPOS>BOND
     1    33    34    1
     2    34    27    1
     3    27    28   ar
     4    28    29   ar
     5    29    30   ar
     6    30    23    1
     7    23    24    2
     8    23    25   am
     9    25     1    1
    10     1     2   ar
    11     2     3   ar
    12     3     4   ar
    13     4     5   ar
    14     5     6   ar
    15     5     7    1
    16     7     8    1
    17     8     9    1
    18     9    10    1
    19    10    11    1
    20    10    12    2
    21     7    13    1
    22    13    14    1
    23    14    15    1
    24    15    16    1
    25    13    17    1
    26    17    18    1
    27    17    19    1
    28    17    20    1
    29    30    31   ar
    30    31    32   ar
    31    32    27   ar
    32     6     1   ar
    33    12     7    1
    34    16    13    1
    35    20     4    1
    36    25    26    1
    37    11    21    1
    38    11    22    1
