@<TRIPOS>MOLECULE
*****
 20 21 0 0 0
SMALL
GASTEIGER

@<TRIPOS>ATOM
      1 C         142.4043  141.9802  167.5929 C.ar    1  UNL1        0.0304
      2 C         143.1686  142.3060  168.8417 C.ar    1  UNL1        0.0297
      3 C         142.4975  143.0470  169.9600 C.ar    1  UNL1        0.1401
      4 F         143.2619  143.3728  171.2089 F       1  UNL1       -0.2042
      5 C         141.0621  143.4622  169.8295 C.ar    1  UNL1        0.0327
      6 C         140.2978  143.1364  168.5806 C.ar    1  UNL1        0.0395
      7 C         140.9688  142.3954  167.4624 C.ar    1  UNL1        0.1427
      8 C         143.0754  141.2392  166.4746 C.3     1  UNL1        0.0988
      9 C         143.0144  138.6632  166.1419 C.3     1  UNL1        0.0861
     10 N         142.4277  140.0202  165.8877 N.3     1  UNL1       -0.2925
     11 H         141.4703  139.9975  166.2387 H       1  UNL1        0.1236
     12 O         140.2044  142.0696  166.2135 O.3     1  UNL1       -0.4537
     13 C         140.0540  143.1017  165.1355 C.ar    1  UNL1        0.1476
     14 C         141.2578  143.8420  164.6326 C.ar    1  UNL1        0.0385
     15 C         141.1074  144.8741  163.5546 C.ar    1  UNL1        0.0168
     16 C         139.7531  145.1660  162.9795 C.ar    1  UNL1        0.0852
     17 CL        139.6026  146.1981  161.9015 Cl      1  UNL1       -0.0799
     18 C         138.5493  144.4258  163.4823 C.ar    1  UNL1        0.1536
     19 F         137.1950  144.7177  162.9072 F       1  UNL1       -0.2032
     20 C         138.6997  143.3936  164.5604 C.ar    1  UNL1        0.0680
@<TRIPOS>BOND
     1     9    10    1
     2    10     8    1
     3     8     1    1
     4     1     2   ar
     5     2     3   ar
     6     3     4    1
     7     3     5   ar
     8     5     6   ar
     9     6     7   ar
    10     7    12    1
    11    12    13    1
    12    13    14   ar
    13    14    15   ar
    14    15    16   ar
    15    16    17    1
    16    16    18   ar
    17    18    19    1
    18    18    20   ar
    19     7     1   ar
    20    20    13   ar
    21    10    11    1
@<TRIPOS>MOLECULE
*****
 20 21 0 0 0
SMALL
GASTEIGER

@<TRIPOS>ATOM
      1 C         138.7500  143.1961  163.8962 C.ar    1  UNL1        0.0304
      2 C         138.5606  144.4685  163.1249 C.ar    1  UNL1        0.0297
      3 C         139.7443  145.3286  162.7946 C.ar    1  UNL1        0.1401
      4 F         139.5549  146.6011  162.0232 F       1  UNL1       -0.2042
      5 C         141.1174  144.9163  163.2357 C.ar    1  UNL1        0.0327
      6 C         141.3068  143.6439  164.0071 C.ar    1  UNL1        0.0395
      7 C         140.1231  142.7838  164.3374 C.ar    1  UNL1        0.1427
      8 C         137.5663  142.3360  164.2265 C.3     1  UNL1        0.0988
      9 C         137.7213  140.7573  162.1690 C.3     1  UNL1        0.0861
     10 N         136.8955  141.5373  163.1486 N.3     1  UNL1       -0.2925
     11 H         136.2829  140.8687  163.6155 H       1  UNL1        0.1236
     12 O         140.3125  141.5113  165.1088 O.3     1  UNL1       -0.4537
     13 C         140.3868  141.5463  166.6065 C.ar    1  UNL1        0.1476
     14 C         140.4398  140.2651  167.3849 C.ar    1  UNL1        0.0385
     15 C         140.5142  140.3000  168.8826 C.ar    1  UNL1        0.0168
     16 C         140.5355  141.6160  169.6020 C.ar    1  UNL1        0.0852
     17 CL        140.6098  141.6509  171.0997 Cl      1  UNL1       -0.0799
     18 C         140.4825  142.8972  168.8237 C.ar    1  UNL1        0.1536
     19 F         140.5038  144.2132  169.5431 F       1  UNL1       -0.2032
     20 C         140.4082  142.8623  167.3259 C.ar    1  UNL1        0.0680
@<TRIPOS>BOND
     1     9    10    1
     2    10     8    1
     3     8     1    1
     4     1     2   ar
     5     2     3   ar
     6     3     4    1
     7     3     5   ar
     8     5     6   ar
     9     6     7   ar
    10     7    12    1
    11    12    13    1
    12    13    14   ar
    13    14    15   ar
    14    15    16   ar
    15    16    17    1
    16    16    18   ar
    17    18    19    1
    18    18    20   ar
    19     7     1   ar
    20    20    13   ar
    21    10    11    1
@<TRIPOS>MOLECULE
*****
 20 21 0 0 0
SMALL
GASTEIGER

@<TRIPOS>ATOM
      1 C         141.3208  144.4952  164.1014 C.ar    1  UNL1        0.0304
      2 C         140.0320  144.9409  163.4768 C.ar    1  UNL1        0.0297
      3 C         138.7581  144.2106  163.7832 C.ar    1  UNL1        0.1401
      4 F         137.4692  144.6564  163.1585 F       1  UNL1       -0.2042
      5 C         138.7730  143.0346  164.7141 C.ar    1  UNL1        0.0327
      6 C         140.0619  142.5889  165.3387 C.ar    1  UNL1        0.0395
      7 C         141.3358  143.3192  165.0324 C.ar    1  UNL1        0.1427
      8 C         142.5947  145.2255  163.7951 C.3     1  UNL1        0.0988
      9 C         144.3194  143.8530  162.4197 C.3     1  UNL1        0.0861
     10 N         143.3170  144.9655  162.5064 N.3     1  UNL1       -0.2925
     11 H         142.6039  144.7748  161.8025 H       1  UNL1        0.1236
     12 O         142.6247  142.8734  165.6570 O.3     1  UNL1       -0.4537
     13 C         142.6143  141.8310  166.7355 C.ar    1  UNL1        0.1476
     14 C         142.6958  140.3773  166.3744 C.ar    1  UNL1        0.0385
     15 C         142.6854  139.3349  167.4529 C.ar    1  UNL1        0.0168
     16 C         142.5936  139.7461  168.8926 C.ar    1  UNL1        0.0852
     17 CL        142.5832  138.7037  169.9711 Cl      1  UNL1       -0.0799
     18 C         142.5121  141.1996  169.2537 C.ar    1  UNL1        0.1536
     19 F         142.4203  141.6108  170.6933 F       1  UNL1       -0.2032
     20 C         142.5225  142.2421  168.1751 C.ar    1  UNL1        0.0680
@<TRIPOS>BOND
     1     9    10    1
     2    10     8    1
     3     8     1    1
     4     1     2   ar
     5     2     3   ar
     6     3     4    1
     7     3     5   ar
     8     5     6   ar
     9     6     7   ar
    10     7    12    1
    11    12    13    1
    12    13    14   ar
    13    14    15   ar
    14    15    16   ar
    15    16    17    1
    16    16    18   ar
    17    18    19    1
    18    18    20   ar
    19     7     1   ar
    20    20    13   ar
    21    10    11    1
@<TRIPOS>MOLECULE
*****
 20 21 0 0 0
SMALL
GASTEIGER

@<TRIPOS>ATOM
      1 C         142.1947  141.9109  167.6516 C.ar    1  UNL1        0.0304
      2 C         143.0332  142.2108  168.8586 C.ar    1  UNL1        0.0297
      3 C         142.4687  143.0341  169.9782 C.ar    1  UNL1        0.1401
      4 F         143.3073  143.3341  171.1853 F       1  UNL1       -0.2042
      5 C         141.0657  143.5574  169.8909 C.ar    1  UNL1        0.0327
      6 C         140.2272  143.2574  168.6839 C.ar    1  UNL1        0.0395
      7 C         140.7917  142.4341  167.5643 C.ar    1  UNL1        0.1427
      8 C         142.7592  141.0876  166.5320 C.3     1  UNL1        0.0988
      9 C         141.9993  139.9743  164.3110 C.3     1  UNL1        0.0861
     10 N         141.8822  140.1157  165.7997 N.3     1  UNL1       -0.2925
     11 H         142.0660  139.1950  166.1983 H       1  UNL1        0.1236
     12 O         139.9530  142.1341  166.3573 O.3     1  UNL1       -0.4537
     13 C         139.8432  143.1413  165.2512 C.ar    1  UNL1        0.1476
     14 C         138.5026  143.4629  164.6601 C.ar    1  UNL1        0.0385
     15 C         138.3927  144.4701  163.5540 C.ar    1  UNL1        0.0168
     16 C         139.6234  145.1558  163.0390 C.ar    1  UNL1        0.0852
     17 CL        139.5136  146.1630  161.9329 Cl      1  UNL1       -0.0799
     18 C         140.9640  144.8342  163.6301 C.ar    1  UNL1        0.1536
     19 F         142.1947  145.5199  163.1151 F       1  UNL1       -0.2032
     20 C         141.0739  143.8270  164.7362 C.ar    1  UNL1        0.0680
@<TRIPOS>BOND
     1     9    10    1
     2    10     8    1
     3     8     1    1
     4     1     2   ar
     5     2     3   ar
     6     3     4    1
     7     3     5   ar
     8     5     6   ar
     9     6     7   ar
    10     7    12    1
    11    12    13    1
    12    13    14   ar
    13    14    15   ar
    14    15    16   ar
    15    16    17    1
    16    16    18   ar
    17    18    19    1
    18    18    20   ar
    19     7     1   ar
    20    20    13   ar
    21    10    11    1
@<TRIPOS>MOLECULE
*****
 20 21 0 0 0
SMALL
GASTEIGER

@<TRIPOS>ATOM
      1 C         139.7315  138.2788  164.5912 C.ar    1  UNL1        0.0304
      2 C         138.4839  137.9313  165.3479 C.ar    1  UNL1        0.0297
      3 C         138.2069  138.5756  166.6738 C.ar    1  UNL1        0.1401
      4 F         136.9592  138.2280  167.4305 F       1  UNL1       -0.2042
      5 C         139.1775  139.5674  167.2431 C.ar    1  UNL1        0.0327
      6 C         140.4251  139.9150  166.4864 C.ar    1  UNL1        0.0395
      7 C         140.7021  139.2707  165.1604 C.ar    1  UNL1        0.1427
      8 C         140.0086  137.6345  163.2652 C.3     1  UNL1        0.0988
      9 C         142.0995  137.6520  161.7233 C.3     1  UNL1        0.0861
     10 N         141.3893  137.1447  162.9432 N.3     1  UNL1       -0.2925
     11 H         141.9777  137.3755  163.7438 H       1  UNL1        0.1236
     12 O         141.9498  139.6183  164.4037 O.3     1  UNL1       -0.4537
     13 C         142.3575  141.0534  164.2485 C.ar    1  UNL1        0.1476
     14 C         141.6163  141.9450  163.2967 C.ar    1  UNL1        0.0385
     15 C         142.0240  143.3801  163.1415 C.ar    1  UNL1        0.0168
     16 C         143.1729  143.9238  163.9379 C.ar    1  UNL1        0.0852
     17 CL        143.5806  145.3589  163.7827 Cl      1  UNL1       -0.0799
     18 C         143.9142  143.0323  164.8896 C.ar    1  UNL1        0.1536
     19 F         145.0631  143.5760  165.6861 F       1  UNL1       -0.2032
     20 C         143.5065  141.5971  165.0449 C.ar    1  UNL1        0.0680
@<TRIPOS>BOND
     1     9    10    1
     2    10     8    1
     3     8     1    1
     4     1     2   ar
     5     2     3   ar
     6     3     4    1
     7     3     5   ar
     8     5     6   ar
     9     6     7   ar
    10     7    12    1
    11    12    13    1
    12    13    14   ar
    13    14    15   ar
    14    15    16   ar
    15    16    17    1
    16    16    18   ar
    17    18    19    1
    18    18    20   ar
    19     7     1   ar
    20    20    13   ar
    21    10    11    1
@<TRIPOS>MOLECULE
*****
 20 21 0 0 0
SMALL
GASTEIGER

@<TRIPOS>ATOM
      1 C         139.7107  140.6471  167.6604 C.ar    1  UNL1        0.0304
      2 C         138.6975  139.5864  167.9736 C.ar    1  UNL1        0.0297
      3 C         138.1045  138.7654  166.8671 C.ar    1  UNL1        0.1401
      4 F         137.0913  137.7046  167.1804 F       1  UNL1       -0.2042
      5 C         138.5248  139.0052  165.4473 C.ar    1  UNL1        0.0327
      6 C         139.5380  140.0659  165.1341 C.ar    1  UNL1        0.0395
      7 C         140.1310  140.8869  166.2406 C.ar    1  UNL1        0.1427
      8 C         140.3036  141.4681  168.7670 C.3     1  UNL1        0.0988
      9 C         140.6400  143.8064  169.8481 C.3     1  UNL1        0.0861
     10 N         140.3752  142.9607  168.6379 N.3     1  UNL1       -0.2925
     11 H         141.1181  143.1632  167.9689 H       1  UNL1        0.1236
     12 O         141.1442  141.9477  165.9273 O.3     1  UNL1       -0.4537
     13 C         140.8166  143.0303  164.9422 C.ar    1  UNL1        0.1476
     14 C         139.5323  143.7952  165.0679 C.ar    1  UNL1        0.0385
     15 C         139.2046  144.8778  164.0828 C.ar    1  UNL1        0.0168
     16 C         140.1612  145.1955  162.9719 C.ar    1  UNL1        0.0852
     17 CL        139.8335  146.2781  161.9867 Cl      1  UNL1       -0.0799
     18 C         141.4454  144.4307  162.8461 C.ar    1  UNL1        0.1536
     19 F         142.4019  144.7485  161.7352 F       1  UNL1       -0.2032
     20 C         141.7731  143.3481  163.8313 C.ar    1  UNL1        0.0680
@<TRIPOS>BOND
     1     9    10    1
     2    10     8    1
     3     8     1    1
     4     1     2   ar
     5     2     3   ar
     6     3     4    1
     7     3     5   ar
     8     5     6   ar
     9     6     7   ar
    10     7    12    1
    11    12    13    1
    12    13    14   ar
    13    14    15   ar
    14    15    16   ar
    15    16    17    1
    16    16    18   ar
    17    18    19    1
    18    18    20   ar
    19     7     1   ar
    20    20    13   ar
    21    10    11    1
@<TRIPOS>MOLECULE
*****
 20 21 0 0 0
SMALL
GASTEIGER

@<TRIPOS>ATOM
      1 C         139.7528  140.7935  167.6233 C.ar    1  UNL1        0.0304
      2 C         138.8948  139.6053  167.9422 C.ar    1  UNL1        0.0297
      3 C         138.0803  138.9568  166.8623 C.ar    1  UNL1        0.1401
      4 F         137.2223  137.7684  167.1813 F       1  UNL1       -0.2042
      5 C         138.1239  139.4965  165.4635 C.ar    1  UNL1        0.0327
      6 C         138.9819  140.6848  165.1446 C.ar    1  UNL1        0.0395
      7 C         139.7963  141.3333  166.2245 C.ar    1  UNL1        0.1427
      8 C         140.5672  141.4421  168.7031 C.3     1  UNL1        0.0988
      9 C         140.4699  143.7571  169.8783 C.3     1  UNL1        0.0861
     10 N         140.8038  142.9230  168.6771 N.3     1  UNL1       -0.2925
     11 H         141.7974  143.0592  168.4910 H       1  UNL1        0.1236
     12 O         140.6544  142.5217  165.9055 O.3     1  UNL1       -0.4537
     13 C         142.0104  142.3254  165.2952 C.ar    1  UNL1        0.1476
     14 C         142.6819  143.4596  164.5791 C.ar    1  UNL1        0.0385
     15 C         144.0380  143.2634  163.9688 C.ar    1  UNL1        0.0168
     16 C         144.7227  141.9330  164.0747 C.ar    1  UNL1        0.0852
     17 CL        146.0788  141.7367  163.4644 Cl      1  UNL1       -0.0799
     18 C         144.0513  140.7988  164.7908 C.ar    1  UNL1        0.1536
     19 F         144.7360  139.4684  164.8966 F       1  UNL1       -0.2032
     20 C         142.6951  140.9950  165.4011 C.ar    1  UNL1        0.0680
@<TRIPOS>BOND
     1     9    10    1
     2    10     8    1
     3     8     1    1
     4     1     2   ar
     5     2     3   ar
     6     3     4    1
     7     3     5   ar
     8     5     6   ar
     9     6     7   ar
    10     7    12    1
    11    12    13    1
    12    13    14   ar
    13    14    15   ar
    14    15    16   ar
    15    16    17    1
    16    16    18   ar
    17    18    19    1
    18    18    20   ar
    19     7     1   ar
    20    20    13   ar
    21    10    11    1
@<TRIPOS>MOLECULE
*****
 20 21 0 0 0
SMALL
GASTEIGER

@<TRIPOS>ATOM
      1 C         141.5529  140.5211  167.7776 C.ar    1  UNL1        0.0304
      2 C         142.6959  139.5569  167.8951 C.ar    1  UNL1        0.0297
      3 C         143.0576  138.6774  166.7351 C.ar    1  UNL1        0.1401
      4 F         144.2006  137.7132  166.8527 F       1  UNL1       -0.2042
      5 C         142.2763  138.7621  165.4575 C.ar    1  UNL1        0.0327
      6 C         141.1333  139.7263  165.3399 C.ar    1  UNL1        0.0395
      7 C         140.7716  140.6058  166.5000 C.ar    1  UNL1        0.1427
      8 C         141.1913  141.4006  168.9376 C.3     1  UNL1        0.0988
      9 C         140.5041  143.7330  169.8528 C.3     1  UNL1        0.0861
     10 N         141.0228  142.8772  168.7354 N.3     1  UNL1       -0.2925
     11 H         141.9397  143.2463  168.4831 H       1  UNL1        0.1236
     12 O         139.6285  141.5700  166.3824 O.3     1  UNL1       -0.4537
     13 C         139.6797  142.6737  165.3680 C.ar    1  UNL1        0.1476
     14 C         140.9740  143.3807  165.0934 C.ar    1  UNL1        0.0385
     15 C         141.0252  144.4844  164.0790 C.ar    1  UNL1        0.0168
     16 C         139.7822  144.8813  163.3391 C.ar    1  UNL1        0.0852
     17 CL        139.8334  145.9850  162.3247 Cl      1  UNL1       -0.0799
     18 C         138.4880  144.1744  163.6136 C.ar    1  UNL1        0.1536
     19 F         137.2450  144.5713  162.8736 F       1  UNL1       -0.2032
     20 C         138.4368  143.0706  164.6280 C.ar    1  UNL1        0.0680
@<TRIPOS>BOND
     1     9    10    1
     2    10     8    1
     3     8     1    1
     4     1     2   ar
     5     2     3   ar
     6     3     4    1
     7     3     5   ar
     8     5     6   ar
     9     6     7   ar
    10     7    12    1
    11    12    13    1
    12    13    14   ar
    13    14    15   ar
    14    15    16   ar
    15    16    17    1
    16    16    18   ar
    17    18    19    1
    18    18    20   ar
    19     7     1   ar
    20    20    13   ar
    21    10    11    1
@<TRIPOS>MOLECULE
*****
 20 21 0 0 0
SMALL
GASTEIGER

@<TRIPOS>ATOM
      1 C         140.4358  140.4630  167.0133 C.ar    1  UNL1        0.0304
      2 C         139.5532  139.9077  168.0916 C.ar    1  UNL1        0.0297
      3 C         139.3396  140.6817  169.3586 C.ar    1  UNL1        0.1401
      4 F         138.4570  140.1263  170.4369 F       1  UNL1       -0.2042
      5 C         140.0085  142.0109  169.5474 C.ar    1  UNL1        0.0327
      6 C         140.8911  142.5662  168.4692 C.ar    1  UNL1        0.0395
      7 C         141.1047  141.7922  167.2021 C.ar    1  UNL1        0.1427
      8 C         140.6494  139.6891  165.7463 C.3     1  UNL1        0.0988
      9 C         142.9853  138.5589  165.8717 C.3     1  UNL1        0.0861
     10 N         142.0356  139.5079  165.2028 N.3     1  UNL1       -0.2925
     11 H         141.9347  139.1923  164.2381 H       1  UNL1        0.1236
     12 O         141.9873  142.3476  166.1238 O.3     1  UNL1       -0.4537
     13 C         141.4246  143.2991  165.1100 C.ar    1  UNL1        0.1476
     14 C         142.3467  144.0763  164.2179 C.ar    1  UNL1        0.0385
     15 C         141.7840  145.0278  163.2040 C.ar    1  UNL1        0.0168
     16 C         140.2992  145.2022  163.0822 C.ar    1  UNL1        0.0852
     17 CL        139.7365  146.1537  162.0683 Cl      1  UNL1       -0.0799
     18 C         139.3771  144.4251  163.9742 C.ar    1  UNL1        0.1536
     19 F         137.8922  144.5995  163.8523 F       1  UNL1       -0.2032
     20 C         139.9398  143.4735  164.9881 C.ar    1  UNL1        0.0680
@<TRIPOS>BOND
     1     9    10    1
     2    10     8    1
     3     8     1    1
     4     1     2   ar
     5     2     3   ar
     6     3     4    1
     7     3     5   ar
     8     5     6   ar
     9     6     7   ar
    10     7    12    1
    11    12    13    1
    12    13    14   ar
    13    14    15   ar
    14    15    16   ar
    15    16    17    1
    16    16    18   ar
    17    18    19    1
    18    18    20   ar
    19     7     1   ar
    20    20    13   ar
    21    10    11    1
