@<TRIPOS>MOLECULE
*****
 35 39 0 0 0
SMALL
GASTEIGER

@<TRIPOS>ATOM
      1 N         139.0042  144.1175  163.4389 N.3     1  UNL1       -0.2720
      2 C         138.1625  142.9462  163.0269 C.3     1  UNL1        0.0768
      3 C         137.9564  141.6446  163.7436 C.3     1  UNL1        0.0434
      4 C         138.5409  141.1930  165.0490 C.ar    1  UNL1       -0.0231
      5 C         138.0751  139.8136  165.4101 C.ar    1  UNL1       -0.0013
      6 C         138.5443  139.1726  166.6824 C.ar    1  UNL1        0.0388
      7 C         139.4794  139.9109  167.5938 C.ar    1  UNL1        0.1643
      8 O         140.1066  139.5381  168.9043 O.2     1  UNL1       -0.4317
      9 C         140.9600  140.6870  169.3533 C.ar    1  UNL1        0.3031
     10 N         140.8603  141.7700  168.3202 N.ar    1  UNL1       -0.2053
     11 C         139.9452  141.2903  167.2327 C.ar    1  UNL1        0.1145
     12 C         139.4760  141.9313  165.9604 C.ar    1  UNL1       -0.0039
     13 C         140.0575  143.3037  165.7913 C.3     1  UNL1        0.0450
     14 C         139.8474  144.2766  164.6690 C.3     1  UNL1        0.0769
     15 C         141.7708  140.7433  170.6140 C.3     1  UNL1        0.4696
     16 F         142.5817  140.7995  171.8747 F       1  UNL1       -0.1619
     17 F         140.5143  140.6406  171.4267 F       1  UNL1       -0.1619
     18 F         143.0274  140.8459  169.8013 F       1  UNL1       -0.1619
     19 C         139.0021  145.2840  162.4958 C.3     1  UNL1        0.0730
     20 C         140.2838  145.7396  161.8636 C.3     1  UNL1        0.0294
     21 C         140.5678  145.4158  160.4267 C.3     1  UNL1        0.0666
     22 S         141.6175  144.4021  160.0796 S.3     1  UNL1       -0.0756
     23 C         143.1672  142.1386  162.8256 C.ar    1  UNL1        0.1740
     24 N         144.0988  143.3138  162.8589 N.ar    1  UNL1       -0.1277
     25 N         143.6317  144.3047  161.8343 N.ar    1  UNL1       -0.1221
     26 C         142.4114  143.7420  161.1678 C.ar    1  UNL1        0.1932
     27 N         142.1244  142.4033  161.7804 N.ar    1  UNL1       -0.2880
     28 C         140.9930  141.4896  161.4125 C.3     1  UNL1        0.1340
     29 C         143.0701  138.9241  167.0135 C.3     1  UNL1        0.0594
     30 C         143.2172  139.4363  165.6113 C.ar    1  UNL1        0.0883
     31 N         143.5979  138.6219  164.4106 N.ar    1  UNL1       -0.2469
     32 C         143.6255  139.5350  163.2209 C.ar    1  UNL1        0.0685
     33 C         143.9582  139.1390  161.8129 C.3     1  UNL1        0.0527
     34 C         143.2619  140.9138  163.6863 C.ar    1  UNL1        0.0799
     35 S         143.0096  140.8528  165.1637 S.2     1  UNL1       -0.0680
@<TRIPOS>BOND
     1    29    30    1
     2    30    31   ar
     3    31    32   ar
     4    32    33    1
     5    32    34   ar
     6    34    23    1
     7    23    24   ar
     8    24    25   ar
     9    25    26   ar
    10    26    22    1
    11    22    21    1
    12    21    20    1
    13    20    19    1
    14    19     1    1
    15     1     2    1
    16     2     3    1
    17     3     4    1
    18     4     5   ar
    19     5     6   ar
    20     6     7   ar
    21     7     8   ar
    22     8     9   ar
    23     9    15    1
    24    15    16    1
    25    15    17    1
    26    15    18    1
    27     9    10   ar
    28    10    11   ar
    29    11    12   ar
    30    12    13    1
    31    13    14    1
    32    26    27   ar
    33    27    28    1
    34    34    35   ar
    35    35    30   ar
    36    27    23   ar
    37    14     1    1
    38    12     4   ar
    39    11     7   ar
@<TRIPOS>MOLECULE
*****
 35 39 0 0 0
SMALL
GASTEIGER

@<TRIPOS>ATOM
      1 N         138.3814  142.4377  162.4902 N.3     1  UNL1       -0.2720
      2 C         137.6639  141.1517  162.7758 C.3     1  UNL1        0.0768
      3 C         137.7194  140.3045  164.0125 C.3     1  UNL1        0.0434
      4 C         138.5061  140.5341  165.2688 C.ar    1  UNL1       -0.0231
      5 C         138.2756  139.4389  166.2675 C.ar    1  UNL1       -0.0013
      6 C         138.9706  139.4771  167.5963 C.ar    1  UNL1        0.0388
      7 C         139.8961  140.6104  167.9263 C.ar    1  UNL1        0.1643
      8 O         140.7147  140.9153  169.1457 O.2     1  UNL1       -0.4317
      9 C         141.4511  142.1990  168.9007 C.ar    1  UNL1        0.3031
     10 N         141.0876  142.6874  167.5298 N.ar    1  UNL1       -0.2053
     11 C         140.1266  141.7057  166.9276 C.ar    1  UNL1        0.1145
     12 C         139.4316  141.6675  165.5988 C.ar    1  UNL1       -0.0039
     13 C         139.7990  142.8512  164.7540 C.3     1  UNL1        0.0450
     14 C         139.3315  143.1939  163.3705 C.3     1  UNL1        0.0769
     15 C         142.3866  142.8754  169.8583 C.3     1  UNL1        0.4696
     16 F         143.3222  143.5519  170.8160 F       1  UNL1       -0.1619
     17 F         143.3724  141.7583  169.6843 F       1  UNL1       -0.1619
     18 F         141.4008  143.9925  170.0323 F       1  UNL1       -0.1619
     19 C         138.1132  143.0479  161.1464 C.3     1  UNL1        0.0730
     20 C         138.8023  142.5102  159.9275 C.3     1  UNL1        0.0294
     21 C         138.3806  141.1926  159.3474 C.3     1  UNL1        0.0666
     22 S         139.3792  140.0827  159.2031 S.3     1  UNL1       -0.0756
     23 C         141.0931  138.7560  162.4230 C.ar    1  UNL1        0.1740
     24 N         140.1076  137.6594  162.1463 N.ar    1  UNL1       -0.1277
     25 N         139.3457  138.0230  160.9065 N.ar    1  UNL1       -0.1221
     26 C         139.8603  139.3442  160.4169 C.ar    1  UNL1        0.1932
     27 N         140.9402  139.7971  161.3541 N.ar    1  UNL1       -0.2880
     28 C         141.7289  141.0682  161.2422 C.3     1  UNL1        0.1340
     29 C         143.0903  138.8796  167.3094 C.3     1  UNL1        0.0594
     30 C         142.9794  138.8598  165.8136 C.ar    1  UNL1        0.0883
     31 N         144.1237  138.8908  164.8442 N.ar    1  UNL1       -0.2469
     32 C         143.5564  138.8556  163.4561 C.ar    1  UNL1        0.0685
     33 C         144.3453  138.8705  162.1805 C.3     1  UNL1        0.0527
     34 C         142.0615  138.8030  163.5675 C.ar    1  UNL1        0.0799
     35 S         141.7049  138.8055  165.0246 S.2     1  UNL1       -0.0680
@<TRIPOS>BOND
     1    29    30    1
     2    30    31   ar
     3    31    32   ar
     4    32    33    1
     5    32    34   ar
     6    34    23    1
     7    23    24   ar
     8    24    25   ar
     9    25    26   ar
    10    26    22    1
    11    22    21    1
    12    21    20    1
    13    20    19    1
    14    19     1    1
    15     1     2    1
    16     2     3    1
    17     3     4    1
    18     4     5   ar
    19     5     6   ar
    20     6     7   ar
    21     7     8   ar
    22     8     9   ar
    23     9    15    1
    24    15    16    1
    25    15    17    1
    26    15    18    1
    27     9    10   ar
    28    10    11   ar
    29    11    12   ar
    30    12    13    1
    31    13    14    1
    32    26    27   ar
    33    27    28    1
    34    34    35   ar
    35    35    30   ar
    36    27    23   ar
    37    14     1    1
    38    12     4   ar
    39    11     7   ar
@<TRIPOS>MOLECULE
*****
 35 39 0 0 0
SMALL
GASTEIGER

@<TRIPOS>ATOM
      1 N         140.3686  145.1777  163.0767 N.3     1  UNL1       -0.2720
      2 C         141.8555  145.0816  162.9030 C.3     1  UNL1        0.0768
      3 C         142.8471  144.3228  163.7343 C.3     1  UNL1        0.0434
      4 C         142.5967  143.4727  164.9444 C.ar    1  UNL1       -0.0231
      5 C         143.8717  142.8897  165.4778 C.ar    1  UNL1       -0.0013
      6 C         143.8430  142.0054  166.6891 C.ar    1  UNL1        0.0388
      7 C         142.5393  141.7040  167.3670 C.ar    1  UNL1        0.1643
      8 O         142.2016  140.8729  168.5691 O.2     1  UNL1       -0.4317
      9 C         140.7179  140.9422  168.7787 C.ar    1  UNL1        0.3031
     10 N         140.1386  141.8162  167.7061 N.ar    1  UNL1       -0.2053
     11 C         141.2643  142.2870  166.8336 C.ar    1  UNL1        0.1145
     12 C         141.2930  143.1713  165.6223 C.ar    1  UNL1       -0.0039
     13 C         139.9176  143.6457  165.2574 C.3     1  UNL1        0.0450
     14 C         139.5063  144.5387  164.1244 C.3     1  UNL1        0.0769
     15 C         139.9486  140.2577  169.8694 C.3     1  UNL1        0.4696
     16 F         139.1793  139.5731  170.9601 F       1  UNL1       -0.1619
     17 F         138.8506  141.2701  169.7302 F       1  UNL1       -0.1619
     18 F         141.0467  139.2453  170.0085 F       1  UNL1       -0.1619
     19 C         139.6491  146.0248  162.0694 C.3     1  UNL1        0.0730
     20 C         139.9534  145.8739  160.6083 C.3     1  UNL1        0.0294
     21 C         140.7978  144.7291  160.1324 C.3     1  UNL1        0.0666
     22 S         140.1509  143.4384  159.7255 S.3     1  UNL1       -0.0756
     23 C         138.5448  141.1665  162.4319 C.ar    1  UNL1        0.1740
     24 N         137.3500  141.9377  161.9544 N.ar    1  UNL1       -0.1277
     25 N         137.8063  142.8825  160.8825 N.ar    1  UNL1       -0.1221
     26 C         139.2830  142.6954  160.6975 C.ar    1  UNL1        0.1932
     27 N         139.7394  141.6349  161.6550 N.ar    1  UNL1       -0.2880
     28 C         141.1440  141.1311  161.8087 C.3     1  UNL1        0.1340
     29 C         138.1015  138.7538  167.1077 C.3     1  UNL1        0.0594
     30 C         138.3412  139.0033  165.6481 C.ar    1  UNL1        0.0883
     31 N         138.7490  137.9765  164.6335 N.ar    1  UNL1       -0.2469
     32 C         138.8750  138.6619  163.3052 C.ar    1  UNL1        0.0685
     33 C         139.2628  138.0113  162.0105 C.3     1  UNL1        0.0527
     34 C         138.5450  140.1123  163.4988 C.ar    1  UNL1        0.0799
     35 S         138.2151  140.3232  164.9469 S.2     1  UNL1       -0.0680
@<TRIPOS>BOND
     1    29    30    1
     2    30    31   ar
     3    31    32   ar
     4    32    33    1
     5    32    34   ar
     6    34    23    1
     7    23    24   ar
     8    24    25   ar
     9    25    26   ar
    10    26    22    1
    11    22    21    1
    12    21    20    1
    13    20    19    1
    14    19     1    1
    15     1     2    1
    16     2     3    1
    17     3     4    1
    18     4     5   ar
    19     5     6   ar
    20     6     7   ar
    21     7     8   ar
    22     8     9   ar
    23     9    15    1
    24    15    16    1
    25    15    17    1
    26    15    18    1
    27     9    10   ar
    28    10    11   ar
    29    11    12   ar
    30    12    13    1
    31    13    14    1
    32    26    27   ar
    33    27    28    1
    34    34    35   ar
    35    35    30   ar
    36    27    23   ar
    37    14     1    1
    38    12     4   ar
    39    11     7   ar
@<TRIPOS>MOLECULE
*****
 35 39 0 0 0
SMALL
GASTEIGER

@<TRIPOS>ATOM
      1 N         142.6463  138.1967  162.7371 N.3     1  UNL1       -0.2720
      2 C         141.3124  137.5773  162.4420 C.3     1  UNL1        0.0768
      3 C         140.0771  137.5672  163.2931 C.3     1  UNL1        0.0434
      4 C         139.8708  138.1739  164.6492 C.ar    1  UNL1       -0.0231
      5 C         138.4779  137.9332  165.1511 C.ar    1  UNL1       -0.0013
      6 C         138.0629  138.4591  166.4932 C.ar    1  UNL1        0.0388
      7 C         139.0407  139.2259  167.3334 C.ar    1  UNL1        0.1643
      8 O         138.9194  139.8613  168.6867 O.2     1  UNL1       -0.4317
      9 C         140.2373  140.4948  169.0212 C.ar    1  UNL1        0.3031
     10 N         141.1732  140.2509  167.8746 N.ar    1  UNL1       -0.2053
     11 C         140.4337  139.4667  166.8314 C.ar    1  UNL1        0.1145
     12 C         140.8487  138.9407  165.4894 C.ar    1  UNL1       -0.0039
     13 C         142.2744  139.2900  165.1809 C.3     1  UNL1        0.0450
     14 C         143.0744  138.9589  163.9559 C.3     1  UNL1        0.0769
     15 C         140.5623  141.2411  170.2811 C.3     1  UNL1        0.4696
     16 F         140.8874  141.9874  171.5410 F       1  UNL1       -0.1619
     17 F         139.4765  142.2298  169.9755 F       1  UNL1       -0.1619
     18 F         141.6482  140.2523  170.5867 F       1  UNL1       -0.1619
     19 C         143.6901  138.0320  161.6725 C.3     1  UNL1        0.0730
     20 C         144.2054  139.2323  160.9353 C.3     1  UNL1        0.0294
     21 C         143.6337  139.5925  159.5960 C.3     1  UNL1        0.0666
     22 S         143.1478  140.9880  159.3386 S.3     1  UNL1       -0.0756
     23 C         141.9994  143.0234  162.4377 C.ar    1  UNL1        0.1740
     24 N         143.2528  143.7552  162.0584 N.ar    1  UNL1       -0.1277
     25 N         143.8355  143.0817  160.8514 N.ar    1  UNL1       -0.1221
     26 C         142.9423  141.9338  160.4846 C.ar    1  UNL1        0.1932
     27 N         141.8076  141.8978  161.4649 N.ar    1  UNL1       -0.2880
     28 C         140.6791  140.9096  161.4715 C.3     1  UNL1        0.1340
     29 C         137.8238  144.6322  165.2406 C.3     1  UNL1        0.0594
     30 C         139.1772  144.0980  164.8759 C.ar    1  UNL1        0.0883
     31 N         140.2370  143.6503  165.8385 N.ar    1  UNL1       -0.2469
     32 C         141.4232  143.1932  165.0423 C.ar    1  UNL1        0.0685
     33 C         142.7101  142.6639  165.6022 C.3     1  UNL1        0.0527
     34 C         141.0966  143.3585  163.5876 C.ar    1  UNL1        0.0799
     35 S         139.7084  143.9176  163.4849 S.2     1  UNL1       -0.0680
@<TRIPOS>BOND
     1    29    30    1
     2    30    31   ar
     3    31    32   ar
     4    32    33    1
     5    32    34   ar
     6    34    23    1
     7    23    24   ar
     8    24    25   ar
     9    25    26   ar
    10    26    22    1
    11    22    21    1
    12    21    20    1
    13    20    19    1
    14    19     1    1
    15     1     2    1
    16     2     3    1
    17     3     4    1
    18     4     5   ar
    19     5     6   ar
    20     6     7   ar
    21     7     8   ar
    22     8     9   ar
    23     9    15    1
    24    15    16    1
    25    15    17    1
    26    15    18    1
    27     9    10   ar
    28    10    11   ar
    29    11    12   ar
    30    12    13    1
    31    13    14    1
    32    26    27   ar
    33    27    28    1
    34    34    35   ar
    35    35    30   ar
    36    27    23   ar
    37    14     1    1
    38    12     4   ar
    39    11     7   ar
@<TRIPOS>MOLECULE
*****
 35 39 0 0 0
SMALL
GASTEIGER

@<TRIPOS>ATOM
      1 N         139.8791  144.3797  159.6587 N.3     1  UNL1       -0.2720
      2 C         140.0510  145.5198  160.6182 C.3     1  UNL1        0.0768
      3 C         139.9790  145.5002  162.1165 C.3     1  UNL1        0.0434
      4 C         139.7174  144.3358  163.0249 C.ar    1  UNL1       -0.0231
      5 C         139.7303  144.7514  164.4662 C.ar    1  UNL1       -0.0013
      6 C         139.4890  143.7346  165.5422 C.ar    1  UNL1        0.0388
      7 C         139.2347  142.3021  165.1771 C.ar    1  UNL1        0.1643
      8 O         138.9665  141.0857  166.0128 O.2     1  UNL1       -0.4317
      9 C         138.7878  139.9182  165.0881 C.ar    1  UNL1        0.3031
     10 N         138.9455  140.4131  163.6808 N.ar    1  UNL1       -0.2053
     11 C         139.2217  141.8865  163.7359 C.ar    1  UNL1        0.1145
     12 C         139.4631  142.9032  162.6598 C.ar    1  UNL1       -0.0039
     13 C         139.4076  142.2815  161.2959 C.3     1  UNL1        0.0450
     14 C         139.5928  142.9386  159.9603 C.3     1  UNL1        0.0769
     15 C         138.5017  138.5041  165.4984 C.3     1  UNL1        0.4696
     16 F         138.2155  137.0900  165.9089 F       1  UNL1       -0.1619
     17 F         138.7220  138.0497  164.0861 F       1  UNL1       -0.1619
     18 F         138.2814  138.9586  166.9109 F       1  UNL1       -0.1619
     19 C         140.0110  144.7269  158.2054 C.3     1  UNL1        0.0730
     20 C         141.3628  144.7335  157.5555 C.3     1  UNL1        0.0294
     21 C         142.1207  143.4499  157.3878 C.3     1  UNL1        0.0666
     22 S         143.3760  143.2120  158.1736 S.3     1  UNL1       -0.0756
     23 C         143.2969  141.8378  161.8029 C.ar    1  UNL1        0.1740
     24 N         143.0682  143.3010  162.0418 N.ar    1  UNL1       -0.1277
     25 N         143.0700  143.9937  160.7114 N.ar    1  UNL1       -0.1221
     26 C         143.2998  142.9588  159.6502 C.ar    1  UNL1        0.1932
     27 N         143.4400  141.6265  160.3248 N.ar    1  UNL1       -0.2880
     28 C         143.6811  140.3132  159.6412 C.3     1  UNL1        0.1340
     29 C         142.0648  137.7352  164.8901 C.3     1  UNL1        0.0594
     30 C         142.8032  138.8874  164.2759 C.ar    1  UNL1        0.0883
     31 N         144.1599  139.3821  164.6820 N.ar    1  UNL1       -0.2469
     32 C         144.5099  140.5475  163.8050 C.ar    1  UNL1        0.0685
     33 C         145.7776  141.3471  163.8654 C.3     1  UNL1        0.0527
     34 C         143.3696  140.7732  162.8569 C.ar    1  UNL1        0.0799
     35 S         142.3149  139.7471  163.1480 S.2     1  UNL1       -0.0680
@<TRIPOS>BOND
     1    29    30    1
     2    30    31   ar
     3    31    32   ar
     4    32    33    1
     5    32    34   ar
     6    34    23    1
     7    23    24   ar
     8    24    25   ar
     9    25    26   ar
    10    26    22    1
    11    22    21    1
    12    21    20    1
    13    20    19    1
    14    19     1    1
    15     1     2    1
    16     2     3    1
    17     3     4    1
    18     4     5   ar
    19     5     6   ar
    20     6     7   ar
    21     7     8   ar
    22     8     9   ar
    23     9    15    1
    24    15    16    1
    25    15    17    1
    26    15    18    1
    27     9    10   ar
    28    10    11   ar
    29    11    12   ar
    30    12    13    1
    31    13    14    1
    32    26    27   ar
    33    27    28    1
    34    34    35   ar
    35    35    30   ar
    36    27    23   ar
    37    14     1    1
    38    12     4   ar
    39    11     7   ar
@<TRIPOS>MOLECULE
*****
 35 39 0 0 0
SMALL
GASTEIGER

@<TRIPOS>ATOM
      1 N         144.3360  142.0798  162.5238 N.3     1  UNL1       -0.2720
      2 C         144.7889  140.6607  162.7008 C.3     1  UNL1        0.0768
      3 C         144.5378  139.7359  163.8548 C.3     1  UNL1        0.0434
      4 C         143.7718  140.0017  165.1167 C.ar    1  UNL1       -0.0231
      5 C         143.7616  138.8003  166.0149 C.ar    1  UNL1       -0.0013
      6 C         143.0472  138.8552  167.3328 C.ar    1  UNL1        0.0388
      7 C         142.3431  140.1114  167.7525 C.ar    1  UNL1        0.1643
      8 O         141.5611  140.4601  168.9841 O.2     1  UNL1       -0.4317
      9 C         141.0880  141.8770  168.8471 C.ar    1  UNL1        0.3031
     10 N         141.5776  142.4040  167.5308 N.ar    1  UNL1       -0.2053
     11 C         142.3533  141.3128  166.8543 C.ar    1  UNL1        0.1145
     12 C         143.0676  141.2579  165.5364 C.ar    1  UNL1       -0.0039
     13 C         142.9556  142.5586  164.7978 C.3     1  UNL1        0.0450
     14 C         143.5201  142.9243  163.4570 C.3     1  UNL1        0.0769
     15 C         140.2690  142.6340  169.8502 C.3     1  UNL1        0.4696
     16 F         139.4501  143.3911  170.8533 F       1  UNL1       -0.1619
     17 F         140.4355  141.5126  170.8324 F       1  UNL1       -0.1619
     18 F         140.1026  143.7554  168.8679 F       1  UNL1       -0.1619
     19 C         144.7543  142.7416  161.2443 C.3     1  UNL1        0.0730
     20 C         144.1205  142.3345  159.9472 C.3     1  UNL1        0.0294
     21 C         142.9281  143.0819  159.4280 C.3     1  UNL1        0.0666
     22 S         141.6281  142.3647  159.2145 S.3     1  UNL1       -0.0756
     23 C         139.5554  141.2618  162.3053 C.ar    1  UNL1        0.1740
     24 N         138.8645  142.5405  161.9342 N.ar    1  UNL1       -0.1277
     25 N         139.5568  143.1092  160.7312 N.ar    1  UNL1       -0.1221
     26 C         140.6756  142.1821  160.3588 C.ar    1  UNL1        0.1932
     27 N         140.6747  141.0404  161.3316 N.ar    1  UNL1       -0.2880
     28 C         141.6262  139.8807  161.3310 C.3     1  UNL1        0.1340
     29 C         138.8029  139.4042  167.1904 C.3     1  UNL1        0.0594
     30 C         138.8451  139.5088  165.6946 C.ar    1  UNL1        0.0883
     31 N         138.4153  138.4487  164.7243 N.ar    1  UNL1       -0.2469
     32 C         138.6290  138.9763  163.3366 C.ar    1  UNL1        0.0685
     33 C         138.3328  138.2461  162.0603 C.3     1  UNL1        0.0527
     34 C         139.1910  140.3625  163.4491 C.ar    1  UNL1        0.0799
     35 S         139.3245  140.6915  164.9066 S.2     1  UNL1       -0.0680
@<TRIPOS>BOND
     1    29    30    1
     2    30    31   ar
     3    31    32   ar
     4    32    33    1
     5    32    34   ar
     6    34    23    1
     7    23    24   ar
     8    24    25   ar
     9    25    26   ar
    10    26    22    1
    11    22    21    1
    12    21    20    1
    13    20    19    1
    14    19     1    1
    15     1     2    1
    16     2     3    1
    17     3     4    1
    18     4     5   ar
    19     5     6   ar
    20     6     7   ar
    21     7     8   ar
    22     8     9   ar
    23     9    15    1
    24    15    16    1
    25    15    17    1
    26    15    18    1
    27     9    10   ar
    28    10    11   ar
    29    11    12   ar
    30    12    13    1
    31    13    14    1
    32    26    27   ar
    33    27    28    1
    34    34    35   ar
    35    35    30   ar
    36    27    23   ar
    37    14     1    1
    38    12     4   ar
    39    11     7   ar
@<TRIPOS>MOLECULE
*****
 35 39 0 0 0
SMALL
GASTEIGER

@<TRIPOS>ATOM
      1 N         139.1646  138.4152  162.6809 N.3     1  UNL1       -0.2720
      2 C         140.5019  137.7355  162.6800 C.3     1  UNL1        0.0768
      3 C         141.5832  137.7977  163.7178 C.3     1  UNL1        0.0434
      4 C         141.5943  138.5547  165.0126 C.ar    1  UNL1       -0.0231
      5 C         142.8776  138.3433  165.7600 C.ar    1  UNL1       -0.0013
      6 C         143.0934  139.0137  167.0843 C.ar    1  UNL1        0.0388
      7 C         142.0260  139.8957  167.6614 C.ar    1  UNL1        0.1643
      8 O         141.9550  140.6827  168.9363 O.2     1  UNL1       -0.4317
      9 C         140.6278  141.3806  168.9769 C.ar    1  UNL1        0.3031
     10 N         139.8786  141.0249  167.7270 N.ar    1  UNL1       -0.2053
     11 C         140.7428  140.1071  166.9139 C.ar    1  UNL1        0.1145
     12 C         140.5269  139.4366  165.5896 C.ar    1  UNL1       -0.0039
     13 C         139.1847  139.7793  165.0142 C.3     1  UNL1        0.0450
     14 C         138.5785  139.3246  163.7196 C.3     1  UNL1        0.0769
     15 C         140.1361  142.2768  170.0745 C.3     1  UNL1        0.4696
     16 F         139.6444  143.1731  171.1723 F       1  UNL1       -0.1619
     17 F         140.0105  143.4066  169.0959 F       1  UNL1       -0.1619
     18 F         140.2618  141.1470  171.0533 F       1  UNL1       -0.1619
     19 C         138.2992  138.1501  161.4847 C.3     1  UNL1        0.0730
     20 C         137.4642  139.2526  160.9040 C.3     1  UNL1        0.0294
     21 C         137.9683  140.0351  159.7276 C.3     1  UNL1        0.0666
     22 S         138.2742  141.4962  159.8742 S.3     1  UNL1       -0.0756
     23 C         140.9056  142.5307  162.5334 C.ar    1  UNL1        0.1740
     24 N         139.6312  142.9337  163.2145 N.ar    1  UNL1       -0.1277
     25 N         138.4905  142.5952  162.3013 N.ar    1  UNL1       -0.1221
     26 C         139.0597  141.9830  161.0558 C.ar    1  UNL1        0.1932
     27 N         140.5522  141.9432  161.1993 N.ar    1  UNL1       -0.2880
     28 C         141.5215  141.4095  160.1864 C.3     1  UNL1        0.1340
     29 C         145.8406  141.4814  164.0905 C.3     1  UNL1        0.0594
     30 C         144.5584  142.2054  163.8047 C.ar    1  UNL1        0.0883
     31 N         144.2824  143.6533  164.0831 N.ar    1  UNL1       -0.2469
     32 C         142.8805  143.9514  163.6407 C.ar    1  UNL1        0.0685
     33 C         142.1902  145.2798  163.7338 C.3     1  UNL1        0.0527
     34 C         142.2899  142.6878  163.0890 C.ar    1  UNL1        0.0799
     35 S         143.3270  141.6087  163.1903 S.2     1  UNL1       -0.0680
@<TRIPOS>BOND
     1    29    30    1
     2    30    31   ar
     3    31    32   ar
     4    32    33    1
     5    32    34   ar
     6    34    23    1
     7    23    24   ar
     8    24    25   ar
     9    25    26   ar
    10    26    22    1
    11    22    21    1
    12    21    20    1
    13    20    19    1
    14    19     1    1
    15     1     2    1
    16     2     3    1
    17     3     4    1
    18     4     5   ar
    19     5     6   ar
    20     6     7   ar
    21     7     8   ar
    22     8     9   ar
    23     9    15    1
    24    15    16    1
    25    15    17    1
    26    15    18    1
    27     9    10   ar
    28    10    11   ar
    29    11    12   ar
    30    12    13    1
    31    13    14    1
    32    26    27   ar
    33    27    28    1
    34    34    35   ar
    35    35    30   ar
    36    27    23   ar
    37    14     1    1
    38    12     4   ar
    39    11     7   ar
@<TRIPOS>MOLECULE
*****
 35 39 0 0 0
SMALL
GASTEIGER

@<TRIPOS>ATOM
      1 N         141.0805  144.7662  161.2672 N.3     1  UNL1       -0.2720
      2 C         140.1721  145.4442  162.2498 C.3     1  UNL1        0.0768
      3 C         139.8843  145.0657  163.6725 C.3     1  UNL1        0.0434
      4 C         140.4336  143.9161  164.4639 C.ar    1  UNL1       -0.0231
      5 C         139.8838  143.8990  165.8594 C.ar    1  UNL1       -0.0013
      6 C         140.3068  142.8267  166.8191 C.ar    1  UNL1        0.0388
      7 C         141.2797  141.7714  166.3835 C.ar    1  UNL1        0.1643
      8 O         141.8763  140.5979  167.1024 O.2     1  UNL1       -0.4317
      9 C         142.7950  139.8896  166.1512 C.ar    1  UNL1        0.3031
     10 N         142.7661  140.6255  164.8444 N.ar    1  UNL1       -0.2053
     11 C         141.8296  141.7885  164.9879 C.ar    1  UNL1        0.1145
     12 C         141.4065  142.8608  164.0282 C.ar    1  UNL1       -0.0039
     13 C         142.0704  142.6946  162.6934 C.3     1  UNL1        0.0450
     14 C         141.9252  143.5427  161.4647 C.3     1  UNL1        0.0769
     15 C         143.6009  138.6613  166.4537 C.3     1  UNL1        0.4696
     16 F         144.4070  137.4329  166.7561 F       1  UNL1       -0.1619
     17 F         143.1101  138.6882  167.8708 F       1  UNL1       -0.1619
     18 F         144.0918  138.6344  165.0365 F       1  UNL1       -0.1619
     19 C         141.1536  145.3953  159.9074 C.3     1  UNL1        0.0730
     20 C         141.0576  144.5397  158.6791 C.3     1  UNL1        0.0294
     21 C         139.7722  143.8392  158.3517 C.3     1  UNL1        0.0666
     22 S         139.5701  142.4113  158.7640 S.3     1  UNL1       -0.0756
     23 C         138.4195  141.0224  162.2010 C.ar    1  UNL1        0.1740
     24 N         137.4979  142.1948  162.0389 N.ar    1  UNL1       -0.1277
     25 N         137.8168  142.8577  160.7317 N.ar    1  UNL1       -0.1221
     26 C         138.9354  142.0951  160.0859 C.ar    1  UNL1        0.1932
     27 N         139.3079  140.9608  160.9940 N.ar    1  UNL1       -0.2880
     28 C         140.3806  139.9435  160.7397 C.3     1  UNL1        0.1340
     29 C         138.4298  139.1236  167.1280 C.3     1  UNL1        0.0594
     30 C         138.4524  139.2048  165.6303 C.ar    1  UNL1        0.0883
     31 N         138.5298  138.0424  164.6854 N.ar    1  UNL1       -0.2469
     32 C         138.5269  138.5818  163.2858 C.ar    1  UNL1        0.0685
     33 C         138.5918  137.7683  162.0272 C.3     1  UNL1        0.0527
     34 C         138.4477  140.0775  163.3656 C.ar    1  UNL1        0.0799
     35 S         138.4017  140.4626  164.8147 S.2     1  UNL1       -0.0680
@<TRIPOS>BOND
     1    29    30    1
     2    30    31   ar
     3    31    32   ar
     4    32    33    1
     5    32    34   ar
     6    34    23    1
     7    23    24   ar
     8    24    25   ar
     9    25    26   ar
    10    26    22    1
    11    22    21    1
    12    21    20    1
    13    20    19    1
    14    19     1    1
    15     1     2    1
    16     2     3    1
    17     3     4    1
    18     4     5   ar
    19     5     6   ar
    20     6     7   ar
    21     7     8   ar
    22     8     9   ar
    23     9    15    1
    24    15    16    1
    25    15    17    1
    26    15    18    1
    27     9    10   ar
    28    10    11   ar
    29    11    12   ar
    30    12    13    1
    31    13    14    1
    32    26    27   ar
    33    27    28    1
    34    34    35   ar
    35    35    30   ar
    36    27    23   ar
    37    14     1    1
    38    12     4   ar
    39    11     7   ar
@<TRIPOS>MOLECULE
*****
 35 39 0 0 0
SMALL
GASTEIGER

@<TRIPOS>ATOM
      1 N         139.3495  141.8880  158.7700 N.3     1  UNL1       -0.2720
      2 C         140.5509  141.0668  158.4060 C.3     1  UNL1        0.0768
      3 C         141.2080  139.9713  159.1923 C.3     1  UNL1        0.0434
      4 C         140.8262  139.4266  160.5366 C.ar    1  UNL1       -0.0231
      5 C         141.7526  138.3277  160.9659 C.ar    1  UNL1       -0.0013
      6 C         141.5457  137.6449  162.2853 C.ar    1  UNL1        0.0388
      7 C         140.4123  138.0610  163.1756 C.ar    1  UNL1        0.1643
      8 O         139.9627  137.5750  164.5215 O.2     1  UNL1       -0.4317
      9 C         138.7584  138.3735  164.9241 C.ar    1  UNL1        0.3031
     10 N         138.4637  139.3531  163.8270 N.ar    1  UNL1       -0.2053
     11 C         139.4859  139.1599  162.7463 C.ar    1  UNL1        0.1145
     12 C         139.6929  139.8427  161.4268 C.ar    1  UNL1       -0.0039
     13 C         138.6615  140.9063  161.1925 C.3     1  UNL1        0.0450
     14 C         138.5088  141.8166  160.0100 C.3     1  UNL1        0.0769
     15 C         137.9846  138.2196  166.1999 C.3     1  UNL1        0.4696
     16 F         137.2108  138.0658  167.4756 F       1  UNL1       -0.1619
     17 F         138.1178  136.7289  166.1008 F       1  UNL1       -0.1619
     18 F         137.8514  139.7105  166.2989 F       1  UNL1       -0.1619
     19 C         138.9342  142.9166  157.7603 C.3     1  UNL1        0.0730
     20 C         139.9622  143.8136  157.1370 C.3     1  UNL1        0.0294
     21 C         140.1558  145.2073  157.6571 C.3     1  UNL1        0.0666
     22 S         141.0508  145.4503  158.8360 S.3     1  UNL1       -0.0756
     23 C         140.1591  144.4988  162.4918 C.ar    1  UNL1        0.1740
     24 N         139.2163  145.6406  162.2512 N.ar    1  UNL1       -0.1277
     25 N         139.4356  146.1359  160.8525 N.ar    1  UNL1       -0.1221
     26 C         140.5139  145.3003  160.2286 C.ar    1  UNL1        0.1932
     27 N         140.9610  144.2887  161.2417 N.ar    1  UNL1       -0.2880
     28 C         142.0235  143.2492  161.0402 C.3     1  UNL1        0.1340
     29 C         142.1533  142.1925  166.8029 C.3     1  UNL1        0.0594
     30 C         141.1955  142.6465  165.7414 C.ar    1  UNL1        0.0883
     31 N         139.7309  142.3282  165.6808 N.ar    1  UNL1       -0.2469
     32 C         139.1644  142.9834  164.4562 C.ar    1  UNL1        0.0685
     33 C         137.7345  142.9255  164.0067 C.3     1  UNL1        0.0527
     34 C         140.2789  143.7066  163.7598 C.ar    1  UNL1        0.0799
     35 S         141.5342  143.4983  164.5541 S.2     1  UNL1       -0.0680
@<TRIPOS>BOND
     1    29    30    1
     2    30    31   ar
     3    31    32   ar
     4    32    33    1
     5    32    34   ar
     6    34    23    1
     7    23    24   ar
     8    24    25   ar
     9    25    26   ar
    10    26    22    1
    11    22    21    1
    12    21    20    1
    13    20    19    1
    14    19     1    1
    15     1     2    1
    16     2     3    1
    17     3     4    1
    18     4     5   ar
    19     5     6   ar
    20     6     7   ar
    21     7     8   ar
    22     8     9   ar
    23     9    15    1
    24    15    16    1
    25    15    17    1
    26    15    18    1
    27     9    10   ar
    28    10    11   ar
    29    11    12   ar
    30    12    13    1
    31    13    14    1
    32    26    27   ar
    33    27    28    1
    34    34    35   ar
    35    35    30   ar
    36    27    23   ar
    37    14     1    1
    38    12     4   ar
    39    11     7   ar
