@<TRIPOS>MOLECULE
*****
 36 40 0 0 0
SMALL
GASTEIGER

@<TRIPOS>ATOM
      1 C         138.4545  139.9850  161.3511 C.ar    1  UNL1        0.2221
      2 N         138.9604  138.6294  160.9556 N.ar    1  UNL1       -0.2119
      3 C         139.6694  137.7708  161.9608 C.ar    1  UNL1        0.1050
      4 C         139.8724  138.2679  163.3614 C.ar    1  UNL1        0.0596
      5 C         139.3665  139.6235  163.7569 C.ar    1  UNL1        0.1683
      6 N         138.6576  140.4821  162.7518 N.ar    1  UNL1       -0.1944
      7 N         139.5695  140.1206  165.1575 N.ar    1  UNL1       -0.2077
      8 C         139.3506  139.3307  166.4138 C.ar    1  UNL1        0.1401
      9 C         139.6729  140.2167  167.5804 C.ar    1  UNL1        0.1726
     10 C         140.0911  141.5542  167.0451 C.ar    1  UNL1        0.1147
     11 C         140.5011  142.7424  167.8636 C.3     1  UNL1        0.0573
     12 N         140.0272  141.4947  165.5477 N.ar    1  UNL1       -0.1649
     13 O         139.5914  139.8328  169.0282 O.3     1  UNL1       -0.4749
     14 C         140.7875  140.0018  169.9174 C.3     1  UNL1        0.1830
     15 C         142.1473  139.4119  169.6878 C.3     1  UNL1        0.0620
     16 C         143.0340  139.8360  170.8210 C.3     1  UNL1        0.0724
     17 N         142.2221  140.6880  171.7509 N.3     1  UNL1       -0.2944
     18 C         140.8337  140.7906  171.1926 C.3     1  UNL1        0.1127
     19 H         142.6369  141.6173  171.8200 H       1  UNL1        0.1234
     20 N         137.7456  140.8436  160.3460 N.pl3   1  UNL1       -0.2825
     21 H         136.7878  140.7030  160.1669 H       1  UNL1        0.1551
     22 C         141.4719  144.6396  159.9880 C.ar    1  UNL1        0.1554
     23 N         141.8166  145.5195  158.8232 N.ar    1  UNL1       -0.1646
     24 N         140.9048  145.1625  157.6869 N.ar    1  UNL1       -0.2487
     25 C         140.9017  145.7950  156.3268 C.3     1  UNL1        0.1537
     26 C         139.9966  144.0619  158.1495 C.ar    1  UNL1        0.0796
     27 C         138.8958  143.3123  157.4595 C.ar    1  UNL1        0.0201
     28 C         138.1455  142.2396  158.1916 C.ar    1  UNL1        0.0162
     29 C         138.4960  141.9164  159.6139 C.ar    1  UNL1        0.0506
     30 C         139.5968  142.6660  160.3039 C.ar    1  UNL1        0.0179
     31 C         140.3471  143.7388  159.5717 C.ar    1  UNL1        0.0423
     32 C         142.1308  145.3566  163.8354 C.3     1  UNL1        0.1110
     33 N         141.4671  145.3389  162.4903 N.am    1  UNL1       -0.2979
     34 C         142.1356  144.6574  161.3331 C.2     1  UNL1        0.2654
     35 O         143.4675  143.9938  161.5212 O.2     1  UNL1       -0.2684
     36 H         140.5929  145.7745  162.3669 H       1  UNL1        0.1498
@<TRIPOS>BOND
     1    32    33    1
     2    33    34   am
     3    34    35    2
     4    34    22    1
     5    22    23   ar
     6    23    24   ar
     7    24    25    1
     8    24    26   ar
     9    26    27   ar
    10    27    28   ar
    11    28    29   ar
    12    29    20    1
    13    20     1    1
    14     1     2   ar
    15     2     3   ar
    16     3     4   ar
    17     4     5   ar
    18     5     7    1
    19     7     8   ar
    20     8     9   ar
    21     9    13    1
    22    14    13    1
    23    14    15    1
    24    15    16    1
    25    16    17    1
    26    17    18    1
    27     9    10   ar
    28    10    11    1
    29    10    12   ar
    30     5     6   ar
    31    29    30   ar
    32    30    31   ar
    33    31    22   ar
    34    31    26   ar
    35     6     1   ar
    36    12     7   ar
    37    18    14    1
    38    33    36    1
    39    20    21    1
    40    17    19    1
@<TRIPOS>MOLECULE
*****
 36 40 0 0 0
SMALL
GASTEIGER

@<TRIPOS>ATOM
      1 C         140.3125  138.4242  161.4782 C.ar    1  UNL1        0.2221
      2 N         138.9376  138.4039  160.8789 N.ar    1  UNL1       -0.2119
      3 C         137.7674  138.9100  161.6692 C.ar    1  UNL1        0.1050
      4 C         137.9722  139.4364  163.0588 C.ar    1  UNL1        0.0596
      5 C         139.3471  139.4567  163.6581 C.ar    1  UNL1        0.1683
      6 N         140.5172  138.9506  162.8678 N.ar    1  UNL1       -0.1944
      7 N         139.5519  139.9831  165.0476 N.ar    1  UNL1       -0.2077
      8 C         139.3235  139.2235  166.3208 C.ar    1  UNL1        0.1401
      9 C         139.6515  140.1325  167.4680 C.ar    1  UNL1        0.1726
     10 C         140.0825  141.4539  166.9039 C.ar    1  UNL1        0.1147
     11 C         140.5016  142.6565  167.6965 C.3     1  UNL1        0.0573
     12 N         140.0209  141.3615  165.4080 N.ar    1  UNL1       -0.1649
     13 O         139.5638  139.7817  168.9238 O.3     1  UNL1       -0.4749
     14 C         140.7497  139.9903  169.8183 C.3     1  UNL1        0.1830
     15 C         142.1441  139.5001  169.5625 C.3     1  UNL1        0.0620
     16 C         143.0056  139.9326  170.7118 C.3     1  UNL1        0.0724
     17 N         142.1436  140.6902  171.6778 N.3     1  UNL1       -0.2944
     18 C         140.7494  140.7258  171.1257 C.3     1  UNL1        0.1127
     19 H         142.4976  141.6407  171.7858 H       1  UNL1        0.1234
     20 N         141.4827  137.9181  160.6879 N.pl3   1  UNL1       -0.2825
     21 H         141.7008  136.9580  160.6914 H       1  UNL1        0.1551
     22 C         144.5166  142.2691  160.1516 C.ar    1  UNL1        0.1554
     23 N         145.1862  142.8094  158.9230 N.ar    1  UNL1       -0.1646
     24 N         144.8645  141.8939  157.7792 N.ar    1  UNL1       -0.2487
     25 C         145.3295  142.0560  156.3623 C.3     1  UNL1        0.1537
     26 C         143.9960  140.7877  158.3009 C.ar    1  UNL1        0.0796
     27 C         143.3732  139.5993  157.6303 C.ar    1  UNL1        0.0201
     28 C         142.5355  138.6428  158.4259 C.ar    1  UNL1        0.0162
     29 C         142.3205  138.8747  159.8922 C.ar    1  UNL1        0.0506
     30 C         142.9433  140.0631  160.5629 C.ar    1  UNL1        0.0179
     31 C         143.7810  141.0196  159.7672 C.ar    1  UNL1        0.0423
     32 C         143.8584  144.7268  163.1974 C.3     1  UNL1        0.1110
     33 N         143.8023  144.1236  161.8251 N.am    1  UNL1       -0.2979
     34 C         144.5727  142.8723  161.5239 C.2     1  UNL1        0.2654
     35 O         145.3991  142.2242  162.5948 O.2     1  UNL1       -0.2684
     36 H         143.2599  144.5490  161.1223 H       1  UNL1        0.1498
@<TRIPOS>BOND
     1    32    33    1
     2    33    34   am
     3    34    35    2
     4    34    22    1
     5    22    23   ar
     6    23    24   ar
     7    24    25    1
     8    24    26   ar
     9    26    27   ar
    10    27    28   ar
    11    28    29   ar
    12    29    20    1
    13    20     1    1
    14     1     2   ar
    15     2     3   ar
    16     3     4   ar
    17     4     5   ar
    18     5     7    1
    19     7     8   ar
    20     8     9   ar
    21     9    13    1
    22    14    13    1
    23    14    15    1
    24    15    16    1
    25    16    17    1
    26    17    18    1
    27     9    10   ar
    28    10    11    1
    29    10    12   ar
    30     5     6   ar
    31    29    30   ar
    32    30    31   ar
    33    31    22   ar
    34    31    26   ar
    35     6     1   ar
    36    12     7   ar
    37    18    14    1
    38    33    36    1
    39    20    21    1
    40    17    19    1
@<TRIPOS>MOLECULE
*****
 36 40 0 0 0
SMALL
GASTEIGER

@<TRIPOS>ATOM
      1 C         138.0153  139.5809  162.4192 C.ar    1  UNL1        0.2221
      2 N         138.4188  138.1588  162.1644 N.ar    1  UNL1       -0.2119
      3 C         139.1325  137.3795  163.2290 C.ar    1  UNL1        0.1050
      4 C         139.4427  138.0222  164.5483 C.ar    1  UNL1        0.0596
      5 C         139.0392  139.4443  164.8031 C.ar    1  UNL1        0.1683
      6 N         138.3255  140.2236  163.7386 N.ar    1  UNL1       -0.1944
      7 N         139.3494  140.0870  166.1224 N.ar    1  UNL1       -0.2077
      8 C         139.8631  141.4817  166.3246 C.ar    1  UNL1        0.1401
      9 C         140.0315  141.7046  167.7984 C.ar    1  UNL1        0.1726
     10 C         139.6218  140.4476  168.5070 C.ar    1  UNL1        0.1147
     11 C         139.6320  140.2287  169.9909 C.3     1  UNL1        0.0573
     12 N         139.2003  139.4479  167.4712 N.ar    1  UNL1       -0.1649
     13 O         140.5232  142.9634  168.4492 O.3     1  UNL1       -0.4749
     14 C         141.8125  142.9572  169.2158 C.3     1  UNL1        0.1830
     15 C         143.0667  142.2328  168.8257 C.3     1  UNL1        0.0620
     16 C         144.1033  142.5022  169.8760 C.3     1  UNL1        0.0724
     17 N         143.4897  143.3930  170.9151 N.3     1  UNL1       -0.2944
     18 C         142.0739  143.6743  170.5072 C.3     1  UNL1        0.1127
     19 H         144.0128  144.2667  170.9747 H       1  UNL1        0.1234
     20 N         137.3017  140.3602  161.3546 N.pl3   1  UNL1       -0.2825
     21 H         136.3211  140.3104  161.2819 H       1  UNL1        0.1551
     22 C         140.3941  144.5326  160.1498 C.ar    1  UNL1        0.1554
     23 N         140.9503  144.9443  158.8190 N.ar    1  UNL1       -0.1646
     24 N         140.4858  143.9513  157.7952 N.ar    1  UNL1       -0.2487
     25 C         140.8080  143.9789  156.3304 C.3     1  UNL1        0.1537
     26 C         139.6425  142.9259  158.4932 C.ar    1  UNL1        0.0796
     27 C         138.9189  141.7114  157.9918 C.ar    1  UNL1        0.0201
     28 C         138.1386  140.8562  158.9456 C.ar    1  UNL1        0.0162
     29 C         138.0820  141.2155  160.4008 C.ar    1  UNL1        0.0506
     30 C         138.8056  142.4299  160.9023 C.ar    1  UNL1        0.0179
     31 C         139.5858  143.2851  159.9485 C.ar    1  UNL1        0.0423
     32 C         141.9781  145.5765  163.6357 C.3     1  UNL1        0.1110
     33 N         141.7637  144.8656  162.3324 N.am    1  UNL1       -0.2979
     34 C         140.6085  145.2435  161.4531 C.2     1  UNL1        0.2654
     35 O         139.6680  146.3321  161.8772 O.2     1  UNL1       -0.2684
     36 H         142.3811  144.1510  162.0540 H       1  UNL1        0.1498
@<TRIPOS>BOND
     1    32    33    1
     2    33    34   am
     3    34    35    2
     4    34    22    1
     5    22    23   ar
     6    23    24   ar
     7    24    25    1
     8    24    26   ar
     9    26    27   ar
    10    27    28   ar
    11    28    29   ar
    12    29    20    1
    13    20     1    1
    14     1     2   ar
    15     2     3   ar
    16     3     4   ar
    17     4     5   ar
    18     5     7    1
    19     7     8   ar
    20     8     9   ar
    21     9    13    1
    22    14    13    1
    23    14    15    1
    24    15    16    1
    25    16    17    1
    26    17    18    1
    27     9    10   ar
    28    10    11    1
    29    10    12   ar
    30     5     6   ar
    31    29    30   ar
    32    30    31   ar
    33    31    22   ar
    34    31    26   ar
    35     6     1   ar
    36    12     7   ar
    37    18    14    1
    38    33    36    1
    39    20    21    1
    40    17    19    1
@<TRIPOS>MOLECULE
*****
 36 40 0 0 0
SMALL
GASTEIGER

@<TRIPOS>ATOM
      1 C         144.2857  141.2530  161.7706 C.ar    1  UNL1        0.2221
      2 N         145.5144  141.6939  162.5095 N.ar    1  UNL1       -0.2119
      3 C         145.5655  141.5957  164.0055 C.ar    1  UNL1        0.1050
      4 C         144.3880  141.0567  164.7624 C.ar    1  UNL1        0.0596
      5 C         143.1594  140.6158  164.0235 C.ar    1  UNL1        0.1683
      6 N         143.1082  140.7140  162.5276 N.ar    1  UNL1       -0.1944
      7 N         141.9819  140.0768  164.7804 N.ar    1  UNL1       -0.2077
      8 C         141.5381  140.5105  166.1461 C.ar    1  UNL1        0.1401
      9 C         140.3234  139.7112  166.5143 C.ar    1  UNL1        0.1726
     10 C         140.0165  138.7835  165.3761 C.ar    1  UNL1        0.1147
     11 C         138.8834  137.8022  165.3196 C.3     1  UNL1        0.0573
     12 N         141.0415  139.0095  164.3046 N.ar    1  UNL1       -0.1649
     13 O         139.5512  139.8204  167.7956 O.3     1  UNL1       -0.4749
     14 C         140.2356  140.2867  169.0463 C.3     1  UNL1        0.1830
     15 C         139.9291  141.5456  169.8020 C.3     1  UNL1        0.0620
     16 C         140.8507  141.6130  170.9837 C.3     1  UNL1        0.0724
     17 N         141.7267  140.3956  170.9582 N.3     1  UNL1       -0.2944
     18 C         141.3466  139.5759  169.7609 C.3     1  UNL1        0.1127
     19 H         141.5871  139.8508  171.8091 H       1  UNL1        0.1234
     20 N         144.2346  141.3511  160.2747 N.pl3   1  UNL1       -0.2825
     21 H         144.7531  140.7226  159.7221 H       1  UNL1        0.1551
     22 C         140.3530  145.0059  160.2642 C.ar    1  UNL1        0.1554
     23 N         139.8917  145.8921  159.1455 N.ar    1  UNL1       -0.1646
     24 N         140.7308  145.5907  157.9392 N.ar    1  UNL1       -0.2487
     25 C         140.6110  146.2466  156.5956 C.3     1  UNL1        0.1537
     26 C         141.7107  144.5181  158.3125 C.ar    1  UNL1        0.0796
     27 C         142.7855  143.8239  157.5296 C.ar    1  UNL1        0.0201
     28 C         143.6267  142.7683  158.1837 C.ar    1  UNL1        0.0162
     29 C         143.3932  142.4068  159.6206 C.ar    1  UNL1        0.0506
     30 C         142.3185  143.1010  160.4035 C.ar    1  UNL1        0.0179
     31 C         141.4772  144.1567  159.7495 C.ar    1  UNL1        0.0423
     32 C         137.9165  144.2585  163.3065 C.3     1  UNL1        0.1110
     33 N         138.4803  144.2901  161.9169 N.am    1  UNL1       -0.2979
     34 C         139.7891  144.9743  161.6539 C.2     1  UNL1        0.2654
     35 O         140.5339  145.6269  162.7805 O.2     1  UNL1       -0.2684
     36 H         137.9915  143.8617  161.1774 H       1  UNL1        0.1498
@<TRIPOS>BOND
     1    32    33    1
     2    33    34   am
     3    34    35    2
     4    34    22    1
     5    22    23   ar
     6    23    24   ar
     7    24    25    1
     8    24    26   ar
     9    26    27   ar
    10    27    28   ar
    11    28    29   ar
    12    29    20    1
    13    20     1    1
    14     1     2   ar
    15     2     3   ar
    16     3     4   ar
    17     4     5   ar
    18     5     7    1
    19     7     8   ar
    20     8     9   ar
    21     9    13    1
    22    14    13    1
    23    14    15    1
    24    15    16    1
    25    16    17    1
    26    17    18    1
    27     9    10   ar
    28    10    11    1
    29    10    12   ar
    30     5     6   ar
    31    29    30   ar
    32    30    31   ar
    33    31    22   ar
    34    31    26   ar
    35     6     1   ar
    36    12     7   ar
    37    18    14    1
    38    33    36    1
    39    20    21    1
    40    17    19    1
@<TRIPOS>MOLECULE
*****
 36 40 0 0 0
SMALL
GASTEIGER

@<TRIPOS>ATOM
      1 C         139.9421  144.7886  162.3159 C.ar    1  UNL1        0.2221
      2 N         138.4542  144.9731  162.3610 N.ar    1  UNL1       -0.2119
      3 C         137.6249  144.1526  163.3039 C.ar    1  UNL1        0.1050
      4 C         138.2836  143.1475  164.2017 C.ar    1  UNL1        0.0596
      5 C         139.7715  142.9630  164.1566 C.ar    1  UNL1        0.1683
      6 N         140.6008  143.7835  163.2137 N.ar    1  UNL1       -0.1944
      7 N         140.4301  141.9579  165.0544 N.ar    1  UNL1       -0.2077
      8 C         140.2758  141.8715  166.5439 C.ar    1  UNL1        0.1401
      9 C         141.1090  140.7230  167.0304 C.ar    1  UNL1        0.1726
     10 C         141.7783  140.0996  165.8414 C.ar    1  UNL1        0.1147
     11 C         142.7046  138.9201  165.8689 C.3     1  UNL1        0.0573
     12 N         141.3587  140.8629  164.6202 N.ar    1  UNL1       -0.1649
     13 O         141.2485  140.2763  168.4555 O.3     1  UNL1       -0.4749
     14 C         141.7652  141.2286  169.4929 C.3     1  UNL1        0.1830
     15 C         142.7945  142.2975  169.2738 C.3     1  UNL1        0.0620
     16 C         143.0087  143.0088  170.5771 C.3     1  UNL1        0.0724
     17 N         142.1117  142.3794  171.6015 N.3     1  UNL1       -0.2944
     18 C         141.3432  141.2792  170.9315 C.3     1  UNL1        0.1127
     19 H         141.4661  143.0770  171.9715 H       1  UNL1        0.1234
     20 N         140.7714  145.6091  161.3730 N.pl3   1  UNL1       -0.2825
     21 H         141.0743  146.5075  161.6381 H       1  UNL1        0.1551
     22 C         140.4274  145.4354  156.0555 C.ar    1  UNL1        0.1554
     23 N         141.1449  144.5391  155.0903 N.ar    1  UNL1       -0.1646
     24 N         142.0395  143.6297  155.8795 N.ar    1  UNL1       -0.2487
     25 C         142.9405  142.5717  155.3148 C.3     1  UNL1        0.1537
     26 C         141.8748  143.9639  157.3325 C.ar    1  UNL1        0.0796
     27 C         142.5033  143.3963  158.5704 C.ar    1  UNL1        0.0201
     28 C         142.1355  143.9447  159.9173 C.ar    1  UNL1        0.0162
     29 C         141.1392  145.0607  160.0261 C.ar    1  UNL1        0.0506
     30 C         140.5107  145.6283  158.7881 C.ar    1  UNL1        0.0179
     31 C         140.8785  145.0799  157.4413 C.ar    1  UNL1        0.0423
     32 C         138.7958  149.0120  155.5116 C.3     1  UNL1        0.1110
     33 N         139.7899  147.9472  155.8693 N.am    1  UNL1       -0.2979
     34 C         139.4333  146.5002  155.6979 C.2     1  UNL1        0.2654
     35 O         138.0828  146.1183  155.1689 O.2     1  UNL1       -0.2684
     36 H         140.6764  148.1979  156.2165 H       1  UNL1        0.1498
@<TRIPOS>BOND
     1    32    33    1
     2    33    34   am
     3    34    35    2
     4    34    22    1
     5    22    23   ar
     6    23    24   ar
     7    24    25    1
     8    24    26   ar
     9    26    27   ar
    10    27    28   ar
    11    28    29   ar
    12    29    20    1
    13    20     1    1
    14     1     2   ar
    15     2     3   ar
    16     3     4   ar
    17     4     5   ar
    18     5     7    1
    19     7     8   ar
    20     8     9   ar
    21     9    13    1
    22    14    13    1
    23    14    15    1
    24    15    16    1
    25    16    17    1
    26    17    18    1
    27     9    10   ar
    28    10    11    1
    29    10    12   ar
    30     5     6   ar
    31    29    30   ar
    32    30    31   ar
    33    31    22   ar
    34    31    26   ar
    35     6     1   ar
    36    12     7   ar
    37    18    14    1
    38    33    36    1
    39    20    21    1
    40    17    19    1
@<TRIPOS>MOLECULE
*****
 36 40 0 0 0
SMALL
GASTEIGER

@<TRIPOS>ATOM
      1 C         139.9418  144.8111  162.2022 C.ar    1  UNL1        0.2221
      2 N         138.4545  145.0043  162.2298 N.ar    1  UNL1       -0.2119
      3 C         137.6167  144.2368  163.2092 C.ar    1  UNL1        0.1050
      4 C         138.2660  143.2763  164.1608 C.ar    1  UNL1        0.0596
      5 C         139.7533  143.0832  164.1332 C.ar    1  UNL1        0.1683
      6 N         140.5912  143.8505  163.1539 N.ar    1  UNL1       -0.1944
      7 N         140.4027  142.1226  165.0848 N.ar    1  UNL1       -0.2077
      8 C         140.1202  142.0100  166.5537 C.ar    1  UNL1        0.1401
      9 C         140.9915  140.9239  167.1114 C.ar    1  UNL1        0.1726
     10 C         141.8125  140.3652  165.9871 C.ar    1  UNL1        0.1147
     11 C         142.8205  139.2597  166.0962 C.3     1  UNL1        0.0573
     12 N         141.4486  141.1061  164.7347 N.ar    1  UNL1       -0.1649
     13 O         141.0343  140.4752  168.5420 O.3     1  UNL1       -0.4749
     14 C         141.6387  141.3634  169.5889 C.3     1  UNL1        0.1830
     15 C         142.5787  142.5055  169.3404 C.3     1  UNL1        0.0620
     16 C         142.9302  143.1134  170.6660 C.3     1  UNL1        0.0724
     17 N         142.2073  142.3468  171.7337 N.3     1  UNL1       -0.2944
     18 C         141.4091  141.2652  171.0680 C.3     1  UNL1        0.1127
     19 H         141.5844  142.9709  172.2464 H       1  UNL1        0.1234
     20 N         140.7797  145.5785  161.2229 N.pl3   1  UNL1       -0.2825
     21 H         140.8283  146.5602  161.2798 H       1  UNL1        0.1551
     22 C         143.9229  141.6433  159.4742 C.ar    1  UNL1        0.1554
     23 N         144.4380  141.3893  158.0885 N.ar    1  UNL1       -0.1646
     24 N         143.9114  142.4712  157.1928 N.ar    1  UNL1       -0.2487
     25 C         144.1785  142.6068  155.7230 C.3     1  UNL1        0.1537
     26 C         143.0710  143.3938  158.0249 C.ar    1  UNL1        0.0796
     27 C         142.3001  144.6337  157.6809 C.ar    1  UNL1        0.0201
     28 C         141.5364  145.3619  158.7469 C.ar    1  UNL1        0.0162
     29 C         141.5435  144.8502  160.1569 C.ar    1  UNL1        0.0506
     30 C         142.3143  143.6103  160.5009 C.ar    1  UNL1        0.0179
     31 C         143.0780  142.8821  159.4349 C.ar    1  UNL1        0.0423
     32 C         143.9149  138.5836  162.0017 C.3     1  UNL1        0.1110
     33 N         143.6344  139.4213  160.7895 N.am    1  UNL1       -0.2979
     34 C         144.2034  140.8055  160.6864 C.2     1  UNL1        0.2654
     35 O         145.0528  141.3517  161.7954 O.2     1  UNL1       -0.2684
     36 H         143.0769  139.0628  160.0616 H       1  UNL1        0.1498
@<TRIPOS>BOND
     1    32    33    1
     2    33    34   am
     3    34    35    2
     4    34    22    1
     5    22    23   ar
     6    23    24   ar
     7    24    25    1
     8    24    26   ar
     9    26    27   ar
    10    27    28   ar
    11    28    29   ar
    12    29    20    1
    13    20     1    1
    14     1     2   ar
    15     2     3   ar
    16     3     4   ar
    17     4     5   ar
    18     5     7    1
    19     7     8   ar
    20     8     9   ar
    21     9    13    1
    22    14    13    1
    23    14    15    1
    24    15    16    1
    25    16    17    1
    26    17    18    1
    27     9    10   ar
    28    10    11    1
    29    10    12   ar
    30     5     6   ar
    31    29    30   ar
    32    30    31   ar
    33    31    22   ar
    34    31    26   ar
    35     6     1   ar
    36    12     7   ar
    37    18    14    1
    38    33    36    1
    39    20    21    1
    40    17    19    1
@<TRIPOS>MOLECULE
*****
 36 40 0 0 0
SMALL
GASTEIGER

@<TRIPOS>ATOM
      1 C         143.3363  142.4894  166.8512 C.ar    1  UNL1        0.2221
      2 N         143.6279  142.6874  168.3092 N.ar    1  UNL1       -0.2119
      3 C         142.8192  141.9590  169.3415 C.ar    1  UNL1        0.1050
      4 C         141.7191  141.0326  168.9158 C.ar    1  UNL1        0.0596
      5 C         141.4275  140.8345  167.4578 C.ar    1  UNL1        0.1683
      6 N         142.2361  141.5629  166.4255 N.ar    1  UNL1       -0.1944
      7 N         140.3273  139.9081  167.0321 N.ar    1  UNL1       -0.2077
      8 C         140.2422  139.1840  165.7212 C.ar    1  UNL1        0.1401
      9 C         138.9813  138.3715  165.7214 C.ar    1  UNL1        0.1726
     10 C         138.2872  138.5934  167.0325 C.ar    1  UNL1        0.1147
     11 C         136.9891  137.9743  167.4588 C.3     1  UNL1        0.0573
     12 N         139.1190  139.5431  167.8425 N.ar    1  UNL1       -0.1649
     13 O         138.4993  137.4915  164.6064 O.3     1  UNL1       -0.4749
     14 C         138.9922  137.7155  163.2075 C.3     1  UNL1        0.1830
     15 C         138.1657  138.1801  162.0452 C.3     1  UNL1        0.0620
     16 C         139.0610  138.2660  160.8447 C.3     1  UNL1        0.0724
     17 N         140.4408  137.8544  161.2651 N.3     1  UNL1       -0.2944
     18 C         140.3984  137.5142  162.7254 C.3     1  UNL1        0.1127
     19 H         141.0941  138.6217  161.1073 H       1  UNL1        0.1234
     20 N         144.1449  143.2177  165.8189 N.pl3   1  UNL1       -0.2825
     21 H         145.0633  143.5055  166.0261 H       1  UNL1        0.1551
     22 C         142.5874  141.8288  160.9129 C.ar    1  UNL1        0.1554
     23 N         141.9683  142.6768  159.8417 N.ar    1  UNL1       -0.1646
     24 N         141.8357  144.0727  160.3745 N.ar    1  UNL1       -0.2487
     25 C         141.2659  145.2477  159.6365 C.3     1  UNL1        0.1537
     26 C         142.3728  144.0874  161.7750 C.ar    1  UNL1        0.0796
     27 C         142.4989  145.1843  162.7902 C.ar    1  UNL1        0.0201
     28 C         143.0896  144.8944  164.1382 C.ar    1  UNL1        0.0162
     29 C         143.5542  143.5076  164.4709 C.ar    1  UNL1        0.0506
     30 C         143.4281  142.4106  163.4557 C.ar    1  UNL1        0.0179
     31 C         142.8375  142.7005  162.1077 C.ar    1  UNL1        0.0423
     32 C         144.0050  138.2255  161.7835 C.3     1  UNL1        0.1110
     33 N         143.6910  139.6885  161.8887 N.am    1  UNL1       -0.2979
     34 C         142.9015  140.3658  160.8078 C.2     1  UNL1        0.2654
     35 O         142.4261  139.5800  159.6219 O.2     1  UNL1       -0.2684
     36 H         144.0030  140.2043  162.6670 H       1  UNL1        0.1498
@<TRIPOS>BOND
     1    32    33    1
     2    33    34   am
     3    34    35    2
     4    34    22    1
     5    22    23   ar
     6    23    24   ar
     7    24    25    1
     8    24    26   ar
     9    26    27   ar
    10    27    28   ar
    11    28    29   ar
    12    29    20    1
    13    20     1    1
    14     1     2   ar
    15     2     3   ar
    16     3     4   ar
    17     4     5   ar
    18     5     7    1
    19     7     8   ar
    20     8     9   ar
    21     9    13    1
    22    14    13    1
    23    14    15    1
    24    15    16    1
    25    16    17    1
    26    17    18    1
    27     9    10   ar
    28    10    11    1
    29    10    12   ar
    30     5     6   ar
    31    29    30   ar
    32    30    31   ar
    33    31    22   ar
    34    31    26   ar
    35     6     1   ar
    36    12     7   ar
    37    18    14    1
    38    33    36    1
    39    20    21    1
    40    17    19    1
@<TRIPOS>MOLECULE
*****
 36 40 0 0 0
SMALL
GASTEIGER

@<TRIPOS>ATOM
      1 C         140.8398  139.0557  161.8506 C.ar    1  UNL1        0.2221
      2 N         139.6254  138.2753  161.4429 N.ar    1  UNL1       -0.2119
      3 C         138.6406  137.8240  162.4805 C.ar    1  UNL1        0.1050
      4 C         138.8702  138.1532  163.9258 C.ar    1  UNL1        0.0596
      5 C         140.0846  138.9337  164.3335 C.ar    1  UNL1        0.1683
      6 N         141.0693  139.3849  163.2960 N.ar    1  UNL1       -0.1944
      7 N         140.3141  139.2628  165.7788 N.ar    1  UNL1       -0.2077
      8 C         141.6322  139.2222  166.4938 C.ar    1  UNL1        0.1401
      9 C         141.3986  139.6247  167.9197 C.ar    1  UNL1        0.1726
     10 C         139.9362  139.9141  168.0861 C.ar    1  UNL1        0.1147
     11 C         139.2623  140.3505  169.3531 C.3     1  UNL1        0.0573
     12 N         139.2660  139.6904  166.7629 N.ar    1  UNL1       -0.1649
     13 O         142.4439  139.7210  168.9912 O.3     1  UNL1       -0.4749
     14 C         142.5353  140.9534  169.8414 C.3     1  UNL1        0.1830
     15 C         143.1670  142.2543  169.4432 C.3     1  UNL1        0.0620
     16 C         143.0331  143.2063  170.5948 C.3     1  UNL1        0.0724
     17 N         142.3185  142.4936  171.7045 N.3     1  UNL1       -0.2944
     18 C         142.0108  141.1013  171.2390 C.3     1  UNL1        0.1127
     19 H         141.4521  142.9830  171.9288 H       1  UNL1        0.1234
     20 N         141.8246  139.5069  160.8131 N.pl3   1  UNL1       -0.2825
     21 H         142.5172  138.8868  160.4891 H       1  UNL1        0.1551
     22 C         140.3029  144.6129  161.0061 C.ar    1  UNL1        0.1554
     23 N         140.5667  145.7160  160.0245 N.ar    1  UNL1       -0.1646
     24 N         141.3765  145.1488  158.8965 N.ar    1  UNL1       -0.2487
     25 C         141.8640  145.9029  157.6950 C.3     1  UNL1        0.1537
     26 C         141.6132  143.6952  159.1809 C.ar    1  UNL1        0.0796
     27 C         142.3472  142.6303  158.4211 C.ar    1  UNL1        0.0201
     28 C         142.4176  141.2343  158.9652 C.ar    1  UNL1        0.0162
     29 C         141.7541  140.9031  160.2690 C.ar    1  UNL1        0.0506
     30 C         141.0201  141.9679  161.0288 C.ar    1  UNL1        0.0179
     31 C         140.9496  143.3640  160.4848 C.ar    1  UNL1        0.0423
     32 C         139.4196  144.5677  164.8750 C.3     1  UNL1        0.1110
     33 N         140.1941  144.4437  163.5965 N.am    1  UNL1       -0.2979
     34 C         139.5283  144.7369  162.2847 C.2     1  UNL1        0.2654
     35 O         138.0879  145.1542  162.2515 O.2     1  UNL1       -0.2684
     36 H         141.1395  144.1698  163.6183 H       1  UNL1        0.1498
@<TRIPOS>BOND
     1    32    33    1
     2    33    34   am
     3    34    35    2
     4    34    22    1
     5    22    23   ar
     6    23    24   ar
     7    24    25    1
     8    24    26   ar
     9    26    27   ar
    10    27    28   ar
    11    28    29   ar
    12    29    20    1
    13    20     1    1
    14     1     2   ar
    15     2     3   ar
    16     3     4   ar
    17     4     5   ar
    18     5     7    1
    19     7     8   ar
    20     8     9   ar
    21     9    13    1
    22    14    13    1
    23    14    15    1
    24    15    16    1
    25    16    17    1
    26    17    18    1
    27     9    10   ar
    28    10    11    1
    29    10    12   ar
    30     5     6   ar
    31    29    30   ar
    32    30    31   ar
    33    31    22   ar
    34    31    26   ar
    35     6     1   ar
    36    12     7   ar
    37    18    14    1
    38    33    36    1
    39    20    21    1
    40    17    19    1
@<TRIPOS>MOLECULE
*****
 36 40 0 0 0
SMALL
GASTEIGER

@<TRIPOS>ATOM
      1 C         138.3852  142.2160  161.8776 C.ar    1  UNL1        0.2221
      2 N         137.7520  143.5192  162.2658 N.ar    1  UNL1       -0.2119
      3 C         137.9205  144.0494  163.6589 C.ar    1  UNL1        0.1050
      4 C         138.7222  143.2764  164.6637 C.ar    1  UNL1        0.0596
      5 C         139.3554  141.9732  164.2755 C.ar    1  UNL1        0.1683
      6 N         139.1869  141.4430  162.8825 N.ar    1  UNL1       -0.1944
      7 N         140.1571  141.2001  165.2803 N.ar    1  UNL1       -0.2077
      8 C         139.9609  141.2187  166.7673 C.ar    1  UNL1        0.1401
      9 C         140.9782  140.3028  167.3806 C.ar    1  UNL1        0.1726
     10 C         141.8032  139.7182  166.2726 C.ar    1  UNL1        0.1147
     11 C         142.9368  138.7492  166.4342 C.3     1  UNL1        0.0573
     12 N         141.2957  140.2728  164.9746 N.ar    1  UNL1       -0.1649
     13 O         141.1419  140.0210  168.8448 O.3     1  UNL1       -0.4749
     14 C         141.7016  141.0751  169.7535 C.3     1  UNL1        0.1830
     15 C         142.6589  142.1608  169.3599 C.3     1  UNL1        0.0620
     16 C         142.9511  142.9853  170.5785 C.3     1  UNL1        0.0724
     17 N         142.1743  142.4091  171.7251 N.3     1  UNL1       -0.2944
     18 C         141.4021  141.2286  171.2153 C.3     1  UNL1        0.1127
     19 H         141.5317  143.1098  172.0947 H       1  UNL1        0.1234
     20 N         138.2167  141.6858  160.4846 N.pl3   1  UNL1       -0.2825
     21 H         137.4115  141.9127  159.9656 H       1  UNL1        0.1551
     22 C         143.2791  140.2438  159.6382 C.ar    1  UNL1        0.1554
     23 N         143.8141  139.1064  158.8196 N.ar    1  UNL1       -0.1646
     24 N         142.6476  138.3736  158.2261 N.ar    1  UNL1       -0.2487
     25 C         142.7237  137.1680  157.3369 C.3     1  UNL1        0.1537
     26 C         141.3917  139.0580  158.6779 C.ar    1  UNL1        0.0796
     27 C         139.9431  138.7781  158.4074 C.ar    1  UNL1        0.0201
     28 C         138.8848  139.6540  159.0096 C.ar    1  UNL1        0.0162
     29 C         139.2751  140.8099  159.8824 C.ar    1  UNL1        0.0506
     30 C         140.7237  141.0898  160.1529 C.ar    1  UNL1        0.0179
     31 C         141.7820  140.2139  159.5507 C.ar    1  UNL1        0.0423
     32 C         145.2656  141.9613  162.6138 C.3     1  UNL1        0.1110
     33 N         144.4472  140.9684  161.8430 N.am    1  UNL1       -0.2979
     34 C         144.0975  141.2367  160.4091 C.2     1  UNL1        0.2654
     35 O         144.5664  142.4979  159.7462 O.2     1  UNL1       -0.2684
     36 H         144.1395  140.1406  162.2781 H       1  UNL1        0.1498
@<TRIPOS>BOND
     1    32    33    1
     2    33    34   am
     3    34    35    2
     4    34    22    1
     5    22    23   ar
     6    23    24   ar
     7    24    25    1
     8    24    26   ar
     9    26    27   ar
    10    27    28   ar
    11    28    29   ar
    12    29    20    1
    13    20     1    1
    14     1     2   ar
    15     2     3   ar
    16     3     4   ar
    17     4     5   ar
    18     5     7    1
    19     7     8   ar
    20     8     9   ar
    21     9    13    1
    22    14    13    1
    23    14    15    1
    24    15    16    1
    25    16    17    1
    26    17    18    1
    27     9    10   ar
    28    10    11    1
    29    10    12   ar
    30     5     6   ar
    31    29    30   ar
    32    30    31   ar
    33    31    22   ar
    34    31    26   ar
    35     6     1   ar
    36    12     7   ar
    37    18    14    1
    38    33    36    1
    39    20    21    1
    40    17    19    1
