@<TRIPOS>MOLECULE
*****
 28 30 0 0 0
SMALL
GASTEIGER

@<TRIPOS>ATOM
      1 C         139.1478  139.0246  163.6524 C.ar    1  UNL1       -0.0145
      2 C         138.5112  138.1863  162.5838 C.ar    1  UNL1       -0.0026
      3 C         139.1067  138.1464  161.2077 C.ar    1  UNL1        0.0144
      4 C         140.3388  138.9447  160.9002 C.ar    1  UNL1        0.0505
      5 C         140.9754  139.7830  161.9689 C.ar    1  UNL1        0.0144
      6 C         140.3799  139.8229  163.3450 C.ar    1  UNL1       -0.0026
      7 C         138.5522  139.0646  165.0286 C.3     1  UNL1        0.0875
      8 C         138.6669  137.5719  165.1216 C.3     1  UNL1        0.0127
      9 C         138.0714  137.6119  166.4977 C.3     1  UNL1        0.0016
     10 C         137.9567  139.1046  166.4047 C.3     1  UNL1        0.0127
     11 N         137.4544  141.1763  163.9869 N.am    1  UNL1       -0.3041
     12 C         138.4376  140.5572  164.9356 C.2     1  UNL1        0.2253
     13 O         139.3062  141.4309  165.7913 O.2     1  UNL1       -0.2748
     14 H         136.8843  140.6029  163.4252 H       1  UNL1        0.1494
     15 C         137.3397  142.6690  163.8939 C.3     1  UNL1        0.0894
     16 C         138.3062  142.6117  161.4829 C.3     1  UNL1        0.0018
     17 C         137.8731  143.3887  162.6907 C.3     1  UNL1        0.0212
     18 N         140.9344  138.9048  159.5240 N.am    1  UNL1       -0.2804
     19 C         142.1878  138.1205  159.2717 C.2     1  UNL1        0.2495
     20 O         142.8458  137.3762  160.3956 O.2     1  UNL1       -0.2698
     21 H         140.5025  139.3933  158.7864 H       1  UNL1        0.1552
     22 C         142.7834  138.0805  157.8956 C.ar    1  UNL1        0.0545
     23 C         143.2581  139.3468  157.2467 C.ar    1  UNL1        0.0046
     24 C         143.8536  139.3068  155.8706 C.ar    1  UNL1        0.0010
     25 C         143.9744  138.0005  155.1433 C.ar    1  UNL1        0.0114
     26 C         143.4997  136.7342  155.7922 C.ar    1  UNL1        0.0578
     27 CL        143.6205  135.4279  155.0649 Cl      1  UNL1       -0.0822
     28 C         142.9042  136.7742  157.1683 C.ar    1  UNL1        0.0159
@<TRIPOS>BOND
     1    16    17    1
     2    17    15    1
     3    15    11    1
     4    11    12   am
     5    12    13    2
     6    12     7    1
     7     7     1    1
     8     1     2   ar
     9     2     3   ar
    10     3     4   ar
    11     4    18    1
    12    18    19   am
    13    19    20    2
    14    19    22    1
    15    22    23   ar
    16    23    24   ar
    17    24    25   ar
    18    25    26   ar
    19    26    27    1
    20    26    28   ar
    21     4     5   ar
    22     5     6   ar
    23     7     8    1
    24     8     9    1
    25     9    10    1
    26    10     7    1
    27     6     1   ar
    28    28    22   ar
    29    11    14    1
    30    18    21    1
@<TRIPOS>MOLECULE
*****
 28 30 0 0 0
SMALL
GASTEIGER

@<TRIPOS>ATOM
      1 C         141.7859  143.4292  163.9852 C.ar    1  UNL1       -0.0145
      2 C         141.1799  144.7802  163.7451 C.ar    1  UNL1       -0.0026
      3 C         141.1701  145.3628  162.3629 C.ar    1  UNL1        0.0144
      4 C         141.7664  144.5945  161.2209 C.ar    1  UNL1        0.0505
      5 C         142.3723  143.2435  161.4611 C.ar    1  UNL1        0.0144
      6 C         142.3821  142.6609  162.8432 C.ar    1  UNL1       -0.0026
      7 C         141.7957  142.8466  165.3675 C.3     1  UNL1        0.0875
      8 C         143.2924  142.9411  165.3968 C.3     1  UNL1        0.0127
      9 C         143.3021  142.3585  166.7789 C.3     1  UNL1        0.0016
     10 C         141.8054  142.2639  166.7496 C.3     1  UNL1        0.0127
     11 N         139.6313  141.6694  164.5429 N.am    1  UNL1       -0.3041
     12 C         140.2990  142.7520  165.3381 C.2     1  UNL1        0.2253
     13 O         139.4699  143.7399  166.1040 O.2     1  UNL1       -0.2748
     14 H         140.1754  141.0210  164.0402 H       1  UNL1        0.1494
     15 C         138.1346  141.5749  164.5136 C.3     1  UNL1        0.0894
     16 C         137.9362  143.2365  162.5262 C.3     1  UNL1        0.0018
     17 C         137.3723  142.1070  163.3363 C.3     1  UNL1        0.0212
     18 N         141.7566  145.1771  159.8387 N.am    1  UNL1       -0.2804
     19 C         140.6088  144.8967  158.9147 C.2     1  UNL1        0.2495
     20 O         139.4707  144.0336  159.3728 O.2     1  UNL1       -0.2698
     21 H         142.5035  145.7436  159.5380 H       1  UNL1        0.1552
     22 C         140.5990  145.4794  157.5324 C.ar    1  UNL1        0.0545
     23 C         141.4998  144.9150  156.4742 C.ar    1  UNL1        0.0046
     24 C         141.4900  145.4976  155.0921 C.ar    1  UNL1        0.0010
     25 C         140.5794  146.6448  154.7682 C.ar    1  UNL1        0.0114
     26 C         139.6786  147.2092  155.8264 C.ar    1  UNL1        0.0578
     27 CL        138.7680  148.3563  155.5025 Cl      1  UNL1       -0.0822
     28 C         139.6884  146.6265  157.2086 C.ar    1  UNL1        0.0159
@<TRIPOS>BOND
     1    16    17    1
     2    17    15    1
     3    15    11    1
     4    11    12   am
     5    12    13    2
     6    12     7    1
     7     7     1    1
     8     1     2   ar
     9     2     3   ar
    10     3     4   ar
    11     4    18    1
    12    18    19   am
    13    19    20    2
    14    19    22    1
    15    22    23   ar
    16    23    24   ar
    17    24    25   ar
    18    25    26   ar
    19    26    27    1
    20    26    28   ar
    21     4     5   ar
    22     5     6   ar
    23     7     8    1
    24     8     9    1
    25     9    10    1
    26    10     7    1
    27     6     1   ar
    28    28    22   ar
    29    11    14    1
    30    18    21    1
@<TRIPOS>MOLECULE
*****
 28 30 0 0 0
SMALL
GASTEIGER

@<TRIPOS>ATOM
      1 C         141.5144  143.1907  164.4145 C.ar    1  UNL1       -0.0145
      2 C         142.0631  144.5215  163.9931 C.ar    1  UNL1       -0.0026
      3 C         141.7747  145.0508  162.6196 C.ar    1  UNL1        0.0144
      4 C         140.9375  144.2492  161.6674 C.ar    1  UNL1        0.0505
      5 C         140.3888  142.9184  162.0888 C.ar    1  UNL1        0.0144
      6 C         140.6772  142.3891  163.4624 C.ar    1  UNL1       -0.0026
      7 C         141.8028  142.6613  165.7881 C.3     1  UNL1        0.0875
      8 C         140.3796  142.9187  166.1861 C.3     1  UNL1        0.0127
      9 C         140.6681  142.3894  167.5596 C.3     1  UNL1        0.0016
     10 C         142.0912  142.1320  167.1616 C.3     1  UNL1        0.0127
     11 N         143.5595  141.2335  164.5133 N.am    1  UNL1       -0.3041
     12 C         143.2259  142.4040  165.3901 C.2     1  UNL1        0.2253
     13 O         144.3154  143.3171  165.8688 O.2     1  UNL1       -0.2748
     14 H         142.8444  140.6342  164.1991 H       1  UNL1        0.1494
     15 C         144.9826  140.9761  164.1153 C.3     1  UNL1        0.0894
     16 C         144.7420  142.6232  162.1204 C.3     1  UNL1        0.0018
     17 C         145.6008  141.7574  162.9938 C.3     1  UNL1        0.0212
     18 N         140.6491  144.7786  160.2938 N.am    1  UNL1       -0.2804
     19 C         141.6653  144.6230  159.2015 C.2     1  UNL1        0.2495
     20 O         142.9698  143.9381  159.4827 O.2     1  UNL1       -0.2698
     21 H         139.7929  145.2281  160.1093 H       1  UNL1        0.1552
     22 C         141.3769  145.1524  157.8279 C.ar    1  UNL1        0.0545
     23 C         142.2072  144.7043  156.6619 C.ar    1  UNL1        0.0046
     24 C         141.9188  145.2336  155.2884 C.ar    1  UNL1        0.0010
     25 C         140.8000  146.2110  155.0809 C.ar    1  UNL1        0.0114
     26 C         139.9697  146.6591  156.2470 C.ar    1  UNL1        0.0578
     27 CL        138.8509  147.6365  156.0395 Cl      1  UNL1       -0.0822
     28 C         140.2581  146.1298  157.6205 C.ar    1  UNL1        0.0159
@<TRIPOS>BOND
     1    16    17    1
     2    17    15    1
     3    15    11    1
     4    11    12   am
     5    12    13    2
     6    12     7    1
     7     7     1    1
     8     1     2   ar
     9     2     3   ar
    10     3     4   ar
    11     4    18    1
    12    18    19   am
    13    19    20    2
    14    19    22    1
    15    22    23   ar
    16    23    24   ar
    17    24    25   ar
    18    25    26   ar
    19    26    27    1
    20    26    28   ar
    21     4     5   ar
    22     5     6   ar
    23     7     8    1
    24     8     9    1
    25     9    10    1
    26    10     7    1
    27     6     1   ar
    28    28    22   ar
    29    11    14    1
    30    18    21    1
@<TRIPOS>MOLECULE
*****
 28 30 0 0 0
SMALL
GASTEIGER

@<TRIPOS>ATOM
      1 C         138.7418  141.3939  162.5486 C.ar    1  UNL1       -0.0145
      2 C         140.1889  141.0467  162.3615 C.ar    1  UNL1       -0.0026
      3 C         140.5885  140.0209  161.3427 C.ar    1  UNL1        0.0144
      4 C         139.5408  139.3423  160.5108 C.ar    1  UNL1        0.0505
      5 C         138.0936  139.6895  160.6979 C.ar    1  UNL1        0.0144
      6 C         137.6941  140.7153  161.7167 C.ar    1  UNL1       -0.0026
      7 C         138.3422  142.4197  163.5675 C.3     1  UNL1        0.0875
      8 C         138.0326  143.3915  162.4677 C.3     1  UNL1        0.0127
      9 C         137.6330  144.4173  163.4866 C.3     1  UNL1        0.0016
     10 C         137.9426  143.4454  164.5864 C.3     1  UNL1        0.0127
     11 N         137.7573  140.2658  164.8975 N.am    1  UNL1       -0.3041
     12 C         138.6518  141.4478  164.6673 C.2     1  UNL1        0.2253
     13 O         139.8558  141.6579  165.5369 O.2     1  UNL1       -0.2748
     14 H         136.9671  140.1280  164.3268 H       1  UNL1        0.1494
     15 C         138.0669  139.2940  165.9973 C.3     1  UNL1        0.0894
     16 C         139.1763  137.6966  164.2746 C.3     1  UNL1        0.0018
     17 C         138.7550  137.9989  165.6821 C.3     1  UNL1        0.0212
     18 N         139.9404  138.3165  159.4919 N.am    1  UNL1       -0.2804
     19 C         140.2454  138.7364  158.0846 C.2     1  UNL1        0.2495
     20 O         140.1509  140.1822  157.6961 O.2     1  UNL1       -0.2698
     21 H         140.0025  137.3676  159.7469 H       1  UNL1        0.1552
     22 C         140.6450  137.7106  157.0657 C.ar    1  UNL1        0.0545
     23 C         139.6639  137.2704  156.0200 C.ar    1  UNL1        0.0046
     24 C         140.0635  136.2446  155.0012 C.ar    1  UNL1        0.0010
     25 C         141.4442  135.6591  155.0281 C.ar    1  UNL1        0.0114
     26 C         142.4254  136.0993  156.0738 C.ar    1  UNL1        0.0578
     27 CL        143.8061  135.5138  156.1006 Cl      1  UNL1       -0.0822
     28 C         142.0258  137.1251  157.0926 C.ar    1  UNL1        0.0159
@<TRIPOS>BOND
     1    16    17    1
     2    17    15    1
     3    15    11    1
     4    11    12   am
     5    12    13    2
     6    12     7    1
     7     7     1    1
     8     1     2   ar
     9     2     3   ar
    10     3     4   ar
    11     4    18    1
    12    18    19   am
    13    19    20    2
    14    19    22    1
    15    22    23   ar
    16    23    24   ar
    17    24    25   ar
    18    25    26   ar
    19    26    27    1
    20    26    28   ar
    21     4     5   ar
    22     5     6   ar
    23     7     8    1
    24     8     9    1
    25     9    10    1
    26    10     7    1
    27     6     1   ar
    28    28    22   ar
    29    11    14    1
    30    18    21    1
@<TRIPOS>MOLECULE
*****
 28 30 0 0 0
SMALL
GASTEIGER

@<TRIPOS>ATOM
      1 C         140.6939  142.5606  167.1897 C.ar    1  UNL1       -0.0145
      2 C         142.0255  142.1920  166.6057 C.ar    1  UNL1       -0.0026
      3 C         142.4030  142.6735  165.2362 C.ar    1  UNL1        0.0144
      4 C         141.4489  143.5237  164.4507 C.ar    1  UNL1        0.0505
      5 C         140.1174  143.8923  165.0346 C.ar    1  UNL1        0.0144
      6 C         139.7399  143.4107  166.4041 C.ar    1  UNL1       -0.0026
      7 C         140.3164  142.0790  168.5592 C.3     1  UNL1        0.0875
      8 C         140.4010  143.4843  169.0767 C.3     1  UNL1        0.0127
      9 C         140.0234  143.0028  170.4462 C.3     1  UNL1        0.0016
     10 C         139.9388  141.5974  169.9287 C.3     1  UNL1        0.0127
     11 N         139.2137  140.3185  166.9988 N.am    1  UNL1       -0.3041
     12 C         140.2317  140.6737  168.0417 C.2     1  UNL1        0.2253
     13 O         141.1651  139.6235  168.5671 O.2     1  UNL1       -0.2748
     14 H         138.6011  141.0078  166.6540 H       1  UNL1        0.1494
     15 C         139.1291  138.9132  166.4813 C.3     1  UNL1        0.0894
     16 C         141.2189  138.9269  164.9376 C.3     1  UNL1        0.0018
     17 C         139.7876  138.5510  165.1831 C.3     1  UNL1        0.0212
     18 N         141.8265  144.0052  163.0811 N.am    1  UNL1       -0.2804
     19 C         141.3376  143.2723  161.8672 C.2     1  UNL1        0.2495
     20 O         140.4712  142.0577  162.0227 O.2     1  UNL1       -0.2698
     21 H         142.3952  144.8024  162.9790 H       1  UNL1        0.1552
     22 C         141.7152  143.7538  160.4976 C.ar    1  UNL1        0.0545
     23 C         141.0722  144.9852  159.9319 C.ar    1  UNL1        0.0046
     24 C         141.4498  145.4667  158.5624 C.ar    1  UNL1        0.0010
     25 C         142.4703  144.7168  157.7586 C.ar    1  UNL1        0.0114
     26 C         143.1133  143.4854  158.3243 C.ar    1  UNL1        0.0578
     27 CL        144.1339  142.7354  157.5206 Cl      1  UNL1       -0.0822
     28 C         142.7357  143.0039  159.6938 C.ar    1  UNL1        0.0159
@<TRIPOS>BOND
     1    16    17    1
     2    17    15    1
     3    15    11    1
     4    11    12   am
     5    12    13    2
     6    12     7    1
     7     7     1    1
     8     1     2   ar
     9     2     3   ar
    10     3     4   ar
    11     4    18    1
    12    18    19   am
    13    19    20    2
    14    19    22    1
    15    22    23   ar
    16    23    24   ar
    17    24    25   ar
    18    25    26   ar
    19    26    27    1
    20    26    28   ar
    21     4     5   ar
    22     5     6   ar
    23     7     8    1
    24     8     9    1
    25     9    10    1
    26    10     7    1
    27     6     1   ar
    28    28    22   ar
    29    11    14    1
    30    18    21    1
@<TRIPOS>MOLECULE
*****
 28 30 0 0 0
SMALL
GASTEIGER

@<TRIPOS>ATOM
      1 C         139.1530  141.1695  164.6431 C.ar    1  UNL1       -0.0145
      2 C         140.3263  141.1025  163.7111 C.ar    1  UNL1       -0.0026
      3 C         140.2466  141.7438  162.3575 C.ar    1  UNL1        0.0144
      4 C         138.9934  142.4521  161.9359 C.ar    1  UNL1        0.0505
      5 C         137.8200  142.5192  162.8678 C.ar    1  UNL1        0.0144
      6 C         137.8998  141.8779  164.2214 C.ar    1  UNL1       -0.0026
      7 C         139.2327  140.5282  165.9968 C.3     1  UNL1        0.0875
      8 C         138.1741  139.5450  165.5934 C.3     1  UNL1        0.0127
      9 C         138.2539  138.9038  166.9471 C.3     1  UNL1        0.0016
     10 C         139.3125  139.8869  167.3504 C.3     1  UNL1        0.0127
     11 N         141.6632  141.0280  166.7668 N.am    1  UNL1       -0.3041
     12 C         140.2913  141.5113  166.4001 C.2     1  UNL1        0.2253
     13 O         139.9781  142.9778  166.4368 O.2     1  UNL1       -0.2748
     14 H         141.8688  140.0655  166.7427 H       1  UNL1        0.1494
     15 C         142.7218  142.0111  167.1701 C.3     1  UNL1        0.0894
     16 C         142.0849  142.8374  169.5496 C.3     1  UNL1        0.0018
     17 C         143.0668  142.1895  168.6190 C.3     1  UNL1        0.0212
     18 N         138.9136  143.0934  160.5822 N.am    1  UNL1       -0.2804
     19 C         138.5658  142.2667  159.3799 C.2     1  UNL1        0.2495
     20 O         138.2977  140.7986  159.5312 O.2     1  UNL1       -0.2698
     21 H         139.0896  144.0570  160.4828 H       1  UNL1        0.1552
     22 C         138.4860  142.9080  158.0262 C.ar    1  UNL1        0.0545
     23 C         137.3849  142.5294  157.0806 C.ar    1  UNL1        0.0046
     24 C         137.3052  143.1707  155.7270 C.ar    1  UNL1        0.0010
     25 C         138.3266  144.1907  155.3190 C.ar    1  UNL1        0.0114
     26 C         139.4277  144.5693  156.2646 C.ar    1  UNL1        0.0578
     27 CL        140.4491  145.5892  155.8565 Cl      1  UNL1       -0.0822
     28 C         139.5074  143.9280  157.6182 C.ar    1  UNL1        0.0159
@<TRIPOS>BOND
     1    16    17    1
     2    17    15    1
     3    15    11    1
     4    11    12   am
     5    12    13    2
     6    12     7    1
     7     7     1    1
     8     1     2   ar
     9     2     3   ar
    10     3     4   ar
    11     4    18    1
    12    18    19   am
    13    19    20    2
    14    19    22    1
    15    22    23   ar
    16    23    24   ar
    17    24    25   ar
    18    25    26   ar
    19    26    27    1
    20    26    28   ar
    21     4     5   ar
    22     5     6   ar
    23     7     8    1
    24     8     9    1
    25     9    10    1
    26    10     7    1
    27     6     1   ar
    28    28    22   ar
    29    11    14    1
    30    18    21    1
@<TRIPOS>MOLECULE
*****
 28 30 0 0 0
SMALL
GASTEIGER

@<TRIPOS>ATOM
      1 C         139.5564  138.6251  164.1204 C.ar    1  UNL1       -0.0145
      2 C         141.0402  138.8440  164.1071 C.ar    1  UNL1       -0.0026
      3 C         141.8221  138.6067  162.8493 C.ar    1  UNL1        0.0144
      4 C         141.1202  138.1504  161.6046 C.ar    1  UNL1        0.0505
      5 C         139.6363  137.9315  161.6179 C.ar    1  UNL1        0.0144
      6 C         138.8544  138.1688  162.8757 C.ar    1  UNL1       -0.0026
      7 C         138.7744  138.8624  165.3783 C.3     1  UNL1        0.0875
      8 C         138.4813  137.3944  165.4731 C.3     1  UNL1        0.0127
      9 C         137.6994  137.6318  166.7309 C.3     1  UNL1        0.0016
     10 C         137.9924  139.0998  166.6361 C.3     1  UNL1        0.0127
     11 N         139.8826  141.0028  166.3481 N.am    1  UNL1       -0.3041
     12 C         139.0675  140.3304  165.2834 C.2     1  UNL1        0.2253
     13 O         138.5455  141.1261  164.1239 O.2     1  UNL1       -0.2748
     14 H         140.2252  140.4806  167.1092 H       1  UNL1        0.1494
     15 C         140.1757  142.4708  166.2533 C.3     1  UNL1        0.0894
     16 C         142.6195  142.2506  165.3994 C.3     1  UNL1        0.0018
     17 C         141.2965  142.9572  165.3831 C.3     1  UNL1        0.0212
     18 N         141.9022  137.9131  160.3467 N.am    1  UNL1       -0.2804
     19 C         141.8265  138.8995  159.2192 C.2     1  UNL1        0.2495
     20 O         140.9689  140.1232  159.3496 O.2     1  UNL1       -0.2698
     21 H         142.4651  137.1099  160.2612 H       1  UNL1        0.1552
     22 C         142.6085  138.6621  157.9613 C.ar    1  UNL1        0.0545
     23 C         143.2354  139.8174  157.2387 C.ar    1  UNL1        0.0046
     24 C         144.0174  139.5800  155.9809 C.ar    1  UNL1        0.0010
     25 C         144.1724  138.1874  155.4457 C.ar    1  UNL1        0.0114
     26 C         143.5455  137.0321  156.1683 C.ar    1  UNL1        0.0578
     27 CL        143.7005  135.6394  155.6331 Cl      1  UNL1       -0.0822
     28 C         142.7635  137.2695  157.4261 C.ar    1  UNL1        0.0159
@<TRIPOS>BOND
     1    16    17    1
     2    17    15    1
     3    15    11    1
     4    11    12   am
     5    12    13    2
     6    12     7    1
     7     7     1    1
     8     1     2   ar
     9     2     3   ar
    10     3     4   ar
    11     4    18    1
    12    18    19   am
    13    19    20    2
    14    19    22    1
    15    22    23   ar
    16    23    24   ar
    17    24    25   ar
    18    25    26   ar
    19    26    27    1
    20    26    28   ar
    21     4     5   ar
    22     5     6   ar
    23     7     8    1
    24     8     9    1
    25     9    10    1
    26    10     7    1
    27     6     1   ar
    28    28    22   ar
    29    11    14    1
    30    18    21    1
@<TRIPOS>MOLECULE
*****
 28 30 0 0 0
SMALL
GASTEIGER

@<TRIPOS>ATOM
      1 C         142.5587  139.0218  164.2504 C.ar    1  UNL1       -0.0145
      2 C         143.8756  139.0952  163.5360 C.ar    1  UNL1       -0.0026
      3 C         144.0215  138.4958  162.1687 C.ar    1  UNL1        0.0144
      4 C         142.8505  137.8229  161.5160 C.ar    1  UNL1        0.0505
      5 C         141.5337  137.7495  162.2304 C.ar    1  UNL1        0.0144
      6 C         141.3878  138.3489  163.5976 C.ar    1  UNL1       -0.0026
      7 C         142.4128  139.6213  165.6177 C.3     1  UNL1        0.0875
      8 C         143.1241  138.4415  166.2109 C.3     1  UNL1        0.0127
      9 C         142.9781  139.0410  167.5781 C.3     1  UNL1        0.0016
     10 C         142.2668  140.2208  166.9849 C.3     1  UNL1        0.0127
     11 N         140.3137  141.1459  165.4778 N.am    1  UNL1       -0.3041
     12 C         141.7014  140.8011  165.0244 C.2     1  UNL1        0.2253
     13 O         142.3777  141.6361  163.9778 O.2     1  UNL1       -0.2748
     14 H         139.8699  140.5979  166.1647 H       1  UNL1        0.1494
     15 C         139.6024  142.3257  164.8845 C.3     1  UNL1        0.0894
     16 C         138.6722  144.7229  165.2566 C.3     1  UNL1        0.0018
     17 C         139.7016  143.6701  165.5426 C.3     1  UNL1        0.0212
     18 N         142.9965  137.2234  160.1487 N.am    1  UNL1       -0.2804
     19 C         142.5464  137.9911  158.9412 C.2     1  UNL1        0.2495
     20 O         141.9503  139.3583  159.1010 O.2     1  UNL1       -0.2698
     21 H         143.3877  136.3261  160.0438 H       1  UNL1        0.1552
     22 C         142.6923  137.3916  157.5739 C.ar    1  UNL1        0.0545
     23 C         142.4578  138.2354  156.3561 C.ar    1  UNL1        0.0046
     24 C         142.6038  137.6359  154.9890 C.ar    1  UNL1        0.0010
     25 C         142.9843  136.1927  154.8395 C.ar    1  UNL1        0.0114
     26 C         143.2188  135.3489  156.0573 C.ar    1  UNL1        0.0578
     27 CL        143.5993  133.9057  155.9079 Cl      1  UNL1       -0.0822
     28 C         143.0728  135.9484  157.4245 C.ar    1  UNL1        0.0159
@<TRIPOS>BOND
     1    16    17    1
     2    17    15    1
     3    15    11    1
     4    11    12   am
     5    12    13    2
     6    12     7    1
     7     7     1    1
     8     1     2   ar
     9     2     3   ar
    10     3     4   ar
    11     4    18    1
    12    18    19   am
    13    19    20    2
    14    19    22    1
    15    22    23   ar
    16    23    24   ar
    17    24    25   ar
    18    25    26   ar
    19    26    27    1
    20    26    28   ar
    21     4     5   ar
    22     5     6   ar
    23     7     8    1
    24     8     9    1
    25     9    10    1
    26    10     7    1
    27     6     1   ar
    28    28    22   ar
    29    11    14    1
    30    18    21    1
@<TRIPOS>MOLECULE
*****
 28 30 0 0 0
SMALL
GASTEIGER

@<TRIPOS>ATOM
      1 C         139.6529  138.5001  164.2589 C.ar    1  UNL1       -0.0145
      2 C         138.8842  138.2042  163.0053 C.ar    1  UNL1       -0.0026
      3 C         139.6143  137.9605  161.7178 C.ar    1  UNL1        0.0144
      4 C         141.1130  138.0129  161.6839 C.ar    1  UNL1        0.0505
      5 C         141.8816  138.3089  162.9375 C.ar    1  UNL1        0.0144
      6 C         141.1516  138.5525  164.2250 C.ar    1  UNL1       -0.0026
      7 C         138.9229  138.7438  165.5465 C.3     1  UNL1        0.0875
      8 C         138.3979  137.3390  165.5147 C.3     1  UNL1        0.0127
      9 C         137.6680  137.5827  166.8022 C.3     1  UNL1        0.0016
     10 C         138.1929  138.9875  166.8340 C.3     1  UNL1        0.0127
     11 N         138.8649  141.1878  164.6669 N.am    1  UNL1       -0.3041
     12 C         139.4478  140.1485  165.5782 C.2     1  UNL1        0.2253
     13 O         140.5555  140.5141  166.5212 O.2     1  UNL1       -0.2748
     14 H         138.1379  140.9479  164.0480 H       1  UNL1        0.1494
     15 C         139.3899  142.5926  164.6987 C.3     1  UNL1        0.0894
     16 C         138.5123  144.8868  165.5450 C.3     1  UNL1        0.0018
     17 C         138.4442  143.7497  164.5692 C.3     1  UNL1        0.0212
     18 N         141.8430  137.7693  160.3963 N.am    1  UNL1       -0.2804
     19 C         141.9016  138.8447  159.3523 C.2     1  UNL1        0.2495
     20 O         141.2302  140.1637  159.5958 O.2     1  UNL1       -0.2698
     21 H         142.2837  136.9035  160.2365 H       1  UNL1        0.1552
     22 C         142.6316  138.6010  158.0647 C.ar    1  UNL1        0.0545
     23 C         142.6813  137.2204  157.4804 C.ar    1  UNL1        0.0046
     24 C         143.4113  136.9769  156.1929 C.ar    1  UNL1        0.0010
     25 C         144.0916  138.1139  155.4897 C.ar    1  UNL1        0.0114
     26 C         144.0420  139.4944  156.0741 C.ar    1  UNL1        0.0578
     27 CL        144.7223  140.6314  155.3709 Cl      1  UNL1       -0.0822
     28 C         143.3120  139.7380  157.3616 C.ar    1  UNL1        0.0159
@<TRIPOS>BOND
     1    16    17    1
     2    17    15    1
     3    15    11    1
     4    11    12   am
     5    12    13    2
     6    12     7    1
     7     7     1    1
     8     1     2   ar
     9     2     3   ar
    10     3     4   ar
    11     4    18    1
    12    18    19   am
    13    19    20    2
    14    19    22    1
    15    22    23   ar
    16    23    24   ar
    17    24    25   ar
    18    25    26   ar
    19    26    27    1
    20    26    28   ar
    21     4     5   ar
    22     5     6   ar
    23     7     8    1
    24     8     9    1
    25     9    10    1
    26    10     7    1
    27     6     1   ar
    28    28    22   ar
    29    11    14    1
    30    18    21    1
