@<TRIPOS>MOLECULE
*****
 24 27 0 0 0
SMALL
GASTEIGER

@<TRIPOS>ATOM
      1 O         139.5432  142.9987  164.9669 O.2     1  UNL1       -0.2520
      2 C         138.9961  142.7063  163.6012 C.2     1  UNL1        0.3111
      3 N         138.7673  143.7094  162.5096 N.am    1  UNL1       -0.2606
      4 C         138.2115  142.9823  161.3210 C.3     1  UNL1        0.1169
      5 C         138.0970  141.5299  161.6781 C.3     1  UNL1        0.1212
      6 N         138.5819  141.3593  163.0872 N.am    1  UNL1       -0.2413
      7 C         138.6420  140.0684  163.8487 C.ar    1  UNL1        0.0562
      8 C         139.2463  138.8509  163.2144 C.ar    1  UNL1        0.0150
      9 C         139.3064  137.5600  163.9760 C.ar    1  UNL1        0.0021
     10 C         138.7620  137.4866  165.3718 C.ar    1  UNL1        0.0115
     11 C         138.1577  138.7041  166.0061 C.ar    1  UNL1        0.0589
     12 CL        137.6133  138.6307  167.4019 Cl      1  UNL1       -0.0822
     13 C         138.0976  139.9950  165.2445 C.ar    1  UNL1        0.0263
     14 C         139.0453  145.1811  162.5922 C.3     1  UNL1        0.1123
     15 C         140.4278  145.6992  162.3273 C.3     1  UNL1        0.0944
     16 N         141.6205  144.8382  162.6209 N.3     1  UNL1       -0.2637
     17 C         142.3575  143.9856  161.6311 C.3     1  UNL1        0.0992
     18 C         143.4781  143.2990  162.3543 C.ar    1  UNL1       -0.0088
     19 C         144.5332  142.3393  161.8901 C.ar    1  UNL1       -0.0032
     20 C         145.5438  141.8078  162.8629 C.ar    1  UNL1       -0.0003
     21 C         145.4992  142.2361  164.2997 C.ar    1  UNL1       -0.0003
     22 C         144.4441  143.1958  164.7639 C.ar    1  UNL1       -0.0032
     23 C         143.4335  143.7273  163.7912 C.ar    1  UNL1       -0.0088
     24 C         142.2855  144.6785  163.9559 C.3     1  UNL1        0.0992
@<TRIPOS>BOND
     1     1     2    2
     2     2     3   am
     3     3    14    1
     4    14    15    1
     5    15    16    1
     6    16    17    1
     7    17    18    1
     8    18    19   ar
     9    19    20   ar
    10    20    21   ar
    11    21    22   ar
    12    22    23   ar
    13    23    24    1
    14     3     4    1
    15     4     5    1
    16     5     6    1
    17     6     7    1
    18     7     8   ar
    19     8     9   ar
    20     9    10   ar
    21    10    11   ar
    22    11    12    1
    23    11    13   ar
    24     6     2   am
    25    13     7   ar
    26    24    16    1
    27    23    18   ar
@<TRIPOS>MOLECULE
*****
 24 27 0 0 0
SMALL
GASTEIGER

@<TRIPOS>ATOM
      1 O         141.4591  139.6622  165.0137 O.2     1  UNL1       -0.2520
      2 C         140.2098  139.3623  165.7878 C.2     1  UNL1        0.3111
      3 N         139.0659  138.5118  165.3208 N.am    1  UNL1       -0.2606
      4 C         138.0342  138.4841  166.4093 C.3     1  UNL1        0.1169
      5 C         138.5405  139.3176  167.5491 C.3     1  UNL1        0.1212
      6 N         139.8851  139.8603  167.1650 N.am    1  UNL1       -0.2413
      7 C         140.7526  140.7456  168.0098 C.ar    1  UNL1        0.0562
      8 C         142.1641  140.3409  168.3161 C.ar    1  UNL1        0.0150
      9 C         143.0315  141.2263  169.1609 C.ar    1  UNL1        0.0021
     10 C         142.4875  142.5163  169.6993 C.ar    1  UNL1        0.0115
     11 C         141.0760  142.9210  169.3930 C.ar    1  UNL1        0.0589
     12 CL        140.5320  144.2110  169.9314 Cl      1  UNL1       -0.0822
     13 C         140.2085  142.0356  168.5482 C.ar    1  UNL1        0.0263
     14 C         138.9705  137.8118  163.9976 C.3     1  UNL1        0.1123
     15 C         138.4588  138.5479  162.7949 C.3     1  UNL1        0.0944
     16 N         138.6339  140.0342  162.6947 N.3     1  UNL1       -0.2637
     17 C         137.6704  141.0710  163.1913 C.3     1  UNL1        0.0992
     18 C         138.2443  142.4224  162.8837 C.ar    1  UNL1       -0.0088
     19 C         137.7368  143.8104  163.1403 C.ar    1  UNL1       -0.0032
     20 C         138.5476  144.9967  162.7101 C.ar    1  UNL1       -0.0003
     21 C         139.8658  144.7951  162.0233 C.ar    1  UNL1       -0.0003
     22 C         140.3732  143.4071  161.7668 C.ar    1  UNL1       -0.0032
     23 C         139.5625  142.2207  162.1970 C.ar    1  UNL1       -0.0088
     24 C         139.8033  140.7448  162.0801 C.3     1  UNL1        0.0992
@<TRIPOS>BOND
     1     1     2    2
     2     2     3   am
     3     3    14    1
     4    14    15    1
     5    15    16    1
     6    16    17    1
     7    17    18    1
     8    18    19   ar
     9    19    20   ar
    10    20    21   ar
    11    21    22   ar
    12    22    23   ar
    13    23    24    1
    14     3     4    1
    15     4     5    1
    16     5     6    1
    17     6     7    1
    18     7     8   ar
    19     8     9   ar
    20     9    10   ar
    21    10    11   ar
    22    11    12    1
    23    11    13   ar
    24     6     2   am
    25    13     7   ar
    26    24    16    1
    27    23    18   ar
@<TRIPOS>MOLECULE
*****
 24 27 0 0 0
SMALL
GASTEIGER

@<TRIPOS>ATOM
      1 O         138.9275  142.4156  165.5424 O.2     1  UNL1       -0.2520
      2 C         138.9122  141.0589  164.9028 C.2     1  UNL1        0.3111
      3 N         138.1911  140.6871  163.6411 N.am    1  UNL1       -0.2606
      4 C         138.4486  139.2342  163.3710 C.3     1  UNL1        0.1169
      5 C         139.3287  138.7081  164.4659 C.3     1  UNL1        0.1212
      6 N         139.6152  139.8359  165.4125 N.am    1  UNL1       -0.2413
      7 C         140.4570  139.7547  166.6513 C.ar    1  UNL1        0.0562
      8 C         141.9145  139.4162  166.5469 C.ar    1  UNL1        0.0150
      9 C         142.7563  139.3351  167.7858 C.ar    1  UNL1        0.0021
     10 C         142.1404  139.5924  169.1292 C.ar    1  UNL1        0.0115
     11 C         140.6829  139.9309  169.2336 C.ar    1  UNL1        0.0589
     12 CL        140.0670  140.1883  170.5769 Cl      1  UNL1       -0.0822
     13 C         139.8412  140.0121  167.9947 C.ar    1  UNL1        0.0263
     14 C         137.3588  141.6067  162.7975 C.3     1  UNL1        0.1123
     15 C         138.0232  142.5848  161.8745 C.3     1  UNL1        0.0944
     16 N         139.4229  143.0467  162.1527 N.3     1  UNL1       -0.2637
     17 C         139.8102  144.2497  162.9607 C.3     1  UNL1        0.0992
     18 C         141.3078  144.3332  162.9791 C.ar    1  UNL1       -0.0088
     19 C         142.2508  145.3089  163.6183 C.ar    1  UNL1       -0.0032
     20 C         143.7321  145.1332  163.4609 C.ar    1  UNL1       -0.0003
     21 C         144.2704  143.9818  162.6642 C.ar    1  UNL1       -0.0003
     22 C         143.3274  143.0061  162.0251 C.ar    1  UNL1       -0.0032
     23 C         141.8461  143.1818  162.1825 C.ar    1  UNL1       -0.0088
     24 C         140.6811  142.3867  161.6718 C.3     1  UNL1        0.0992
@<TRIPOS>BOND
     1     1     2    2
     2     2     3   am
     3     3    14    1
     4    14    15    1
     5    15    16    1
     6    16    17    1
     7    17    18    1
     8    18    19   ar
     9    19    20   ar
    10    20    21   ar
    11    21    22   ar
    12    22    23   ar
    13    23    24    1
    14     3     4    1
    15     4     5    1
    16     5     6    1
    17     6     7    1
    18     7     8   ar
    19     8     9   ar
    20     9    10   ar
    21    10    11   ar
    22    11    12    1
    23    11    13   ar
    24     6     2   am
    25    13     7   ar
    26    24    16    1
    27    23    18   ar
@<TRIPOS>MOLECULE
*****
 24 27 0 0 0
SMALL
GASTEIGER

@<TRIPOS>ATOM
      1 O         142.9225  138.3481  164.6344 O.2     1  UNL1       -0.2520
      2 C         141.8874  138.3043  163.5496 C.2     1  UNL1        0.3111
      3 N         142.1504  138.0917  162.0882 N.am    1  UNL1       -0.2606
      4 C         140.8331  138.1214  161.3711 C.3     1  UNL1        0.1169
      5 C         139.7562  138.3524  162.3895 C.3     1  UNL1        0.1212
      6 N         140.4078  138.4654  163.7358 N.am    1  UNL1       -0.2413
      7 C         139.7034  138.6986  165.0394 C.ar    1  UNL1        0.0562
      8 C         138.5133  137.8636  165.4087 C.ar    1  UNL1        0.0150
      9 C         137.8089  138.0969  166.7123 C.ar    1  UNL1        0.0021
     10 C         138.2947  139.1651  167.6466 C.ar    1  UNL1        0.0115
     11 C         139.4848  140.0001  167.2773 C.ar    1  UNL1        0.0589
     12 CL        139.9705  141.0684  168.2116 Cl      1  UNL1       -0.0822
     13 C         140.1891  139.7669  165.9737 C.ar    1  UNL1        0.0263
     14 C         143.4944  137.8856  161.4550 C.3     1  UNL1        0.1123
     15 C         144.3008  139.0676  161.0051 C.3     1  UNL1        0.0944
     16 N         144.1781  140.3774  161.7259 N.3     1  UNL1       -0.2637
     17 C         143.4637  141.5968  161.2234 C.3     1  UNL1        0.0992
     18 C         143.5924  142.6707  162.2627 C.ar    1  UNL1       -0.0088
     19 C         143.0891  144.0828  162.3145 C.ar    1  UNL1       -0.0032
     20 C         143.3799  144.9392  163.5112 C.ar    1  UNL1       -0.0003
     21 C         144.1739  144.3834  164.6560 C.ar    1  UNL1       -0.0003
     22 C         144.6772  142.9714  164.6042 C.ar    1  UNL1       -0.0032
     23 C         144.3864  142.1150  163.4076 C.ar    1  UNL1       -0.0088
     24 C         144.7484  140.6976  163.0758 C.3     1  UNL1        0.0992
@<TRIPOS>BOND
     1     1     2    2
     2     2     3   am
     3     3    14    1
     4    14    15    1
     5    15    16    1
     6    16    17    1
     7    17    18    1
     8    18    19   ar
     9    19    20   ar
    10    20    21   ar
    11    21    22   ar
    12    22    23   ar
    13    23    24    1
    14     3     4    1
    15     4     5    1
    16     5     6    1
    17     6     7    1
    18     7     8   ar
    19     8     9   ar
    20     9    10   ar
    21    10    11   ar
    22    11    12    1
    23    11    13   ar
    24     6     2   am
    25    13     7   ar
    26    24    16    1
    27    23    18   ar
@<TRIPOS>MOLECULE
*****
 24 27 0 0 0
SMALL
GASTEIGER

@<TRIPOS>ATOM
      1 O         142.2658  141.0315  162.5405 O.2     1  UNL1       -0.2520
      2 C         143.0992  141.9664  163.3661 C.2     1  UNL1        0.3111
      3 N         144.4305  141.6512  163.9811 N.am    1  UNL1       -0.2606
      4 C         144.9017  142.8707  164.7167 C.3     1  UNL1        0.1169
      5 C         143.8615  143.9395  164.5562 C.3     1  UNL1        0.1212
      6 N         142.7475  143.3806  163.7215 N.am    1  UNL1       -0.2413
      7 C         141.5008  144.1082  163.3138 C.ar    1  UNL1        0.0562
      8 C         141.5170  145.0110  162.1160 C.ar    1  UNL1        0.0150
      9 C         140.2703  145.7387  161.7084 C.ar    1  UNL1        0.0021
     10 C         139.0073  145.5635  162.4985 C.ar    1  UNL1        0.0115
     11 C         138.9911  144.6606  163.6963 C.ar    1  UNL1        0.0589
     12 CL        137.7282  144.4854  164.4864 Cl      1  UNL1       -0.0822
     13 C         140.2379  143.9330  164.1039 C.ar    1  UNL1        0.0263
     14 C         145.1622  140.3458  163.8786 C.3     1  UNL1        0.1123
     15 C         144.6855  139.1557  164.6572 C.3     1  UNL1        0.0944
     16 N         143.2456  139.0540  165.0651 N.3     1  UNL1       -0.2637
     17 C         142.2095  138.1744  164.4306 C.3     1  UNL1        0.0992
     18 C         140.9125  138.3909  165.1525 C.ar    1  UNL1       -0.0088
     19 C         139.5483  137.7961  164.9654 C.ar    1  UNL1       -0.0032
     20 C         138.4186  138.2148  165.8590 C.ar    1  UNL1       -0.0003
     21 C         138.6532  139.2282  166.9397 C.ar    1  UNL1       -0.0003
     22 C         140.0175  139.8230  167.1268 C.ar    1  UNL1       -0.0032
     23 C         141.1471  139.4043  166.2332 C.ar    1  UNL1       -0.0088
     24 C         142.5890  139.8142  166.1792 C.3     1  UNL1        0.0992
@<TRIPOS>BOND
     1     1     2    2
     2     2     3   am
     3     3    14    1
     4    14    15    1
     5    15    16    1
     6    16    17    1
     7    17    18    1
     8    18    19   ar
     9    19    20   ar
    10    20    21   ar
    11    21    22   ar
    12    22    23   ar
    13    23    24    1
    14     3     4    1
    15     4     5    1
    16     5     6    1
    17     6     7    1
    18     7     8   ar
    19     8     9   ar
    20     9    10   ar
    21    10    11   ar
    22    11    12    1
    23    11    13   ar
    24     6     2   am
    25    13     7   ar
    26    24    16    1
    27    23    18   ar
@<TRIPOS>MOLECULE
*****
 24 27 0 0 0
SMALL
GASTEIGER

@<TRIPOS>ATOM
      1 O         142.8493  139.4665  166.6437 O.2     1  UNL1       -0.2520
      2 C         141.3802  139.3615  166.3596 C.2     1  UNL1        0.3111
      3 N         140.7587  138.7125  165.1585 N.am    1  UNL1       -0.2606
      4 C         139.2690  138.8370  165.2833 C.3     1  UNL1        0.1169
      5 C         138.9700  139.5629  166.5614 C.3     1  UNL1        0.1212
      6 N         140.2748  139.8871  167.2266 N.am    1  UNL1       -0.2413
      7 C         140.4443  140.6099  168.5299 C.ar    1  UNL1        0.0562
      8 C         140.7250  139.8377  169.7849 C.ar    1  UNL1        0.0150
      9 C         140.8945  140.5606  171.0882 C.ar    1  UNL1        0.0021
     10 C         140.7832  142.0557  171.1366 C.ar    1  UNL1        0.0115
     11 C         140.5025  142.8279  169.8816 C.ar    1  UNL1        0.0589
     12 CL        140.3913  144.3230  169.9300 Cl      1  UNL1       -0.0822
     13 C         140.3330  142.1050  168.5783 C.ar    1  UNL1        0.0263
     14 C         141.4971  138.0546  164.0308 C.3     1  UNL1        0.1123
     15 C         142.1444  138.8924  162.9682 C.3     1  UNL1        0.0944
     16 N         142.3096  140.3689  163.1744 N.3     1  UNL1       -0.2637
     17 C         141.2395  141.4072  163.0110 C.3     1  UNL1        0.0992
     18 C         141.8425  142.7464  163.3157 C.ar    1  UNL1       -0.0088
     19 C         141.2642  144.1304  163.3184 C.ar    1  UNL1       -0.0032
     20 C         142.1288  145.3038  163.6728 C.ar    1  UNL1       -0.0003
     21 C         143.5717  145.0932  164.0246 C.ar    1  UNL1       -0.0003
     22 C         144.1500  143.7092  164.0219 C.ar    1  UNL1       -0.0032
     23 C         143.2854  142.5358  163.6675 C.ar    1  UNL1       -0.0088
     24 C         143.5741  141.0665  163.5801 C.3     1  UNL1        0.0992
@<TRIPOS>BOND
     1     1     2    2
     2     2     3   am
     3     3    14    1
     4    14    15    1
     5    15    16    1
     6    16    17    1
     7    17    18    1
     8    18    19   ar
     9    19    20   ar
    10    20    21   ar
    11    21    22   ar
    12    22    23   ar
    13    23    24    1
    14     3     4    1
    15     4     5    1
    16     5     6    1
    17     6     7    1
    18     7     8   ar
    19     8     9   ar
    20     9    10   ar
    21    10    11   ar
    22    11    12    1
    23    11    13   ar
    24     6     2   am
    25    13     7   ar
    26    24    16    1
    27    23    18   ar
@<TRIPOS>MOLECULE
*****
 24 27 0 0 0
SMALL
GASTEIGER

@<TRIPOS>ATOM
      1 O         138.0443  139.4394  165.8674 O.2     1  UNL1       -0.2520
      2 C         139.4163  138.9885  165.4621 C.2     1  UNL1        0.3111
      3 N         139.7518  138.1574  164.2593 N.am    1  UNL1       -0.2606
      4 C         141.2366  137.9448  164.2422 C.3     1  UNL1        0.1169
      5 C         141.8187  138.6445  165.4346 C.3     1  UNL1        0.1212
      6 N         140.6937  139.2895  166.1885 N.am    1  UNL1       -0.2413
      7 C         140.8235  140.0943  167.4476 C.ar    1  UNL1        0.0562
      8 C         139.6704  140.1835  168.4028 C.ar    1  UNL1        0.0150
      9 C         139.8002  140.9883  169.6620 C.ar    1  UNL1        0.0021
     10 C         141.0831  141.7038  169.9659 C.ar    1  UNL1        0.0115
     11 C         142.2361  141.6146  169.0107 C.ar    1  UNL1        0.0589
     12 CL        143.5190  142.3301  169.3146 Cl      1  UNL1       -0.0822
     13 C         142.1063  140.8098  167.7515 C.ar    1  UNL1        0.0263
     14 C         138.7741  137.6313  163.2506 C.3     1  UNL1        0.1123
     15 C         138.1297  138.5674  162.2716 C.3     1  UNL1        0.0944
     16 N         138.4114  140.0389  162.3441 N.3     1  UNL1       -0.2637
     17 C         139.6838  140.7147  161.9265 C.3     1  UNL1        0.0992
     18 C         139.5289  142.1865  162.1713 C.ar    1  UNL1       -0.0088
     19 C         140.4569  143.3439  161.9496 C.ar    1  UNL1       -0.0032
     20 C         140.0167  144.7352  162.2968 C.ar    1  UNL1       -0.0003
     21 C         138.6486  144.9691  162.8657 C.ar    1  UNL1       -0.0003
     22 C         137.7207  143.8116  163.0873 C.ar    1  UNL1       -0.0032
     23 C         138.1608  142.4204  162.7401 C.ar    1  UNL1       -0.0088
     24 C         137.4702  141.0931  162.8469 C.3     1  UNL1        0.0992
@<TRIPOS>BOND
     1     1     2    2
     2     2     3   am
     3     3    14    1
     4    14    15    1
     5    15    16    1
     6    16    17    1
     7    17    18    1
     8    18    19   ar
     9    19    20   ar
    10    20    21   ar
    11    21    22   ar
    12    22    23   ar
    13    23    24    1
    14     3     4    1
    15     4     5    1
    16     5     6    1
    17     6     7    1
    18     7     8   ar
    19     8     9   ar
    20     9    10   ar
    21    10    11   ar
    22    11    12    1
    23    11    13   ar
    24     6     2   am
    25    13     7   ar
    26    24    16    1
    27    23    18   ar
@<TRIPOS>MOLECULE
*****
 24 27 0 0 0
SMALL
GASTEIGER

@<TRIPOS>ATOM
      1 O         143.1780  141.1948  166.3117 O.2     1  UNL1       -0.2520
      2 C         143.0560  140.2252  165.1737 C.2     1  UNL1        0.3111
      3 N         144.0797  139.9889  164.1031 N.am    1  UNL1       -0.2606
      4 C         143.5453  138.9393  163.1742 C.3     1  UNL1        0.1169
      5 C         142.1912  138.5270  163.6707 C.3     1  UNL1        0.1212
      6 N         141.8888  139.3217  164.9065 N.am    1  UNL1       -0.2413
      7 C         140.6387  139.2291  165.7303 C.ar    1  UNL1        0.0562
      8 C         139.4457  138.4891  165.2023 C.ar    1  UNL1        0.0150
      9 C         138.1956  138.3965  166.0262 C.ar    1  UNL1        0.0021
     10 C         138.1386  139.0440  167.3780 C.ar    1  UNL1        0.0115
     11 C         139.3317  139.7841  167.9060 C.ar    1  UNL1        0.0589
     12 CL        139.2748  140.4316  169.2579 Cl      1  UNL1       -0.0822
     13 C         140.5818  139.8766  167.0821 C.ar    1  UNL1        0.0263
     14 C         145.4052  140.6807  163.9826 C.3     1  UNL1        0.1123
     15 C         145.4680  142.1787  163.9372 C.3     1  UNL1        0.0944
     16 N         144.3242  142.9602  163.3620 N.3     1  UNL1       -0.2637
     17 C         143.8689  142.9344  161.9330 C.3     1  UNL1        0.0992
     18 C         142.6982  143.8630  161.8026 C.ar    1  UNL1       -0.0088
     19 C         141.8418  144.2400  160.6303 C.ar    1  UNL1       -0.0032
     20 C         140.7171  145.2166  160.8064 C.ar    1  UNL1       -0.0003
     21 C         140.4487  145.8164  162.1548 C.ar    1  UNL1       -0.0003
     22 C         141.3051  145.4394  163.3272 C.ar    1  UNL1       -0.0032
     23 C         142.4299  144.4628  163.1511 C.ar    1  UNL1       -0.0088
     24 C         143.4348  143.9048  164.1148 C.3     1  UNL1        0.0992
@<TRIPOS>BOND
     1     1     2    2
     2     2     3   am
     3     3    14    1
     4    14    15    1
     5    15    16    1
     6    16    17    1
     7    17    18    1
     8    18    19   ar
     9    19    20   ar
    10    20    21   ar
    11    21    22   ar
    12    22    23   ar
    13    23    24    1
    14     3     4    1
    15     4     5    1
    16     5     6    1
    17     6     7    1
    18     7     8   ar
    19     8     9   ar
    20     9    10   ar
    21    10    11   ar
    22    11    12    1
    23    11    13   ar
    24     6     2   am
    25    13     7   ar
    26    24    16    1
    27    23    18   ar
@<TRIPOS>MOLECULE
*****
 24 27 0 0 0
SMALL
GASTEIGER

@<TRIPOS>ATOM
      1 O         139.8365  139.8601  165.1949 O.2     1  UNL1       -0.2520
      2 C         141.1385  139.4040  165.7837 C.2     1  UNL1        0.3111
      3 N         142.1879  138.5941  165.0818 N.am    1  UNL1       -0.2606
      4 C         143.3178  138.3673  166.0421 C.3     1  UNL1        0.1169
      5 C         142.9666  139.0371  167.3375 C.3     1  UNL1        0.1212
      6 N         141.6197  139.6779  167.1778 N.am    1  UNL1       -0.2413
      7 C         140.8835  140.4558  168.2278 C.ar    1  UNL1        0.0562
      8 C         139.7159  139.8378  168.9383 C.ar    1  UNL1        0.0150
      9 C         138.9797  140.6158  169.9884 C.ar    1  UNL1        0.0021
     10 C         139.4109  142.0118  170.3279 C.ar    1  UNL1        0.0115
     11 C         140.5785  142.6298  169.6173 C.ar    1  UNL1        0.0589
     12 CL        141.0098  144.0258  169.9568 Cl      1  UNL1       -0.0822
     13 C         141.3147  141.8518  168.5673 C.ar    1  UNL1        0.0263
     14 C         142.1196  138.0980  163.6678 C.3     1  UNL1        0.1123
     15 C         142.3010  139.0554  162.5275 C.3     1  UNL1        0.0944
     16 N         142.3932  140.5289  162.7927 N.3     1  UNL1       -0.2637
     17 C         143.6066  141.2625  163.2820 C.3     1  UNL1        0.0992
     18 C         143.2515  142.7145  163.4069 C.ar    1  UNL1       -0.0088
     19 C         144.0479  143.9086  163.8426 C.ar    1  UNL1       -0.0032
     20 C         143.4112  145.2665  163.8663 C.ar    1  UNL1       -0.0003
     21 C         141.9783  145.4304  163.4543 C.ar    1  UNL1       -0.0003
     22 C         141.1819  144.2363  163.0185 C.ar    1  UNL1       -0.0032
     23 C         141.8186  142.8783  162.9949 C.ar    1  UNL1       -0.0088
     24 C         141.2881  141.5275  162.6153 C.3     1  UNL1        0.0992
@<TRIPOS>BOND
     1     1     2    2
     2     2     3   am
     3     3    14    1
     4    14    15    1
     5    15    16    1
     6    16    17    1
     7    17    18    1
     8    18    19   ar
     9    19    20   ar
    10    20    21   ar
    11    21    22   ar
    12    22    23   ar
    13    23    24    1
    14     3     4    1
    15     4     5    1
    16     5     6    1
    17     6     7    1
    18     7     8   ar
    19     8     9   ar
    20     9    10   ar
    21    10    11   ar
    22    11    12    1
    23    11    13   ar
    24     6     2   am
    25    13     7   ar
    26    24    16    1
    27    23    18   ar
