@<TRIPOS>MOLECULE
*****
 35 38 0 0 0
SMALL
GASTEIGER

@<TRIPOS>ATOM
      1 C         141.6524  143.7202  162.0654 C.3     1  UNL1        0.1752
      2 C         141.9120  143.8893  160.5977 C.ar    1  UNL1        0.0111
      3 C         142.8334  143.1766  159.6527 C.ar    1  UNL1       -0.0019
      4 C         142.8780  143.5731  158.2068 C.ar    1  UNL1        0.0021
      5 C         142.0011  144.6822  157.7058 C.ar    1  UNL1        0.0298
      6 C         141.0797  145.3949  158.6508 C.ar    1  UNL1        0.1442
      7 F         140.2028  146.5040  158.1499 F       1  UNL1       -0.2040
      8 C         141.0351  144.9984  160.0967 C.ar    1  UNL1        0.0790
      9 C         140.2337  145.5147  161.2548 C.2     1  UNL1        0.2515
     10 O         139.2274  146.6260  161.2050 O.2     1  UNL1       -0.2698
     11 N         140.6152  144.7248  162.4715 N.am    1  UNL1       -0.2657
     12 O         141.9322  141.2732  162.8924 O.2     1  UNL1       -0.2729
     13 C         142.3140  142.7217  162.9684 C.2     1  UNL1        0.2451
     14 N         143.3576  143.1719  163.9474 N.am    1  UNL1       -0.2988
     15 H         143.6083  144.1226  163.9973 H       1  UNL1        0.1498
     16 C         144.0192  142.1734  164.8504 C.3     1  UNL1        0.1164
     17 C         143.2480  141.5570  165.9796 C.ar    1  UNL1       -0.0024
     18 C         142.6717  142.4269  167.0572 C.ar    1  UNL1        0.0005
     19 C         141.9005  141.8103  168.1864 C.ar    1  UNL1        0.0369
     20 C         141.7054  140.3239  168.2380 C.ar    1  UNL1        0.1468
     21 C         142.2816  139.4541  167.1604 C.ar    1  UNL1        0.0369
     22 C         143.0529  140.0706  166.0312 C.ar    1  UNL1        0.0005
     23 O         140.9341  139.7075  169.3672 O.3     1  UNL1       -0.4045
     24 C         139.6298  140.3082  169.8006 C.3     1  UNL1        0.5753
     25 F         138.3254  140.9089  170.2340 F       1  UNL1       -0.1328
     26 F         138.9800  139.8015  168.5472 F       1  UNL1       -0.1328
     27 F         140.2796  140.8149  171.0540 F       1  UNL1       -0.1328
     28 C         140.0575  144.9073  163.8520 C.3     1  UNL1        0.1007
     29 C         138.7552  144.2637  164.2259 C.3     1  UNL1        0.0673
     30 C         138.6398  142.7686  164.2591 C.ar    1  UNL1        0.0607
     31 C         139.3767  141.9824  165.3027 C.ar    1  UNL1        0.0148
     32 C         139.2612  140.4872  165.3359 C.ar    1  UNL1        0.0028
     33 C         138.4089  139.7782  164.3255 C.ar    1  UNL1        0.0207
     34 C         137.6720  140.5643  163.2819 C.ar    1  UNL1        0.0984
     35 N         137.7875  142.0595  163.2487 N.ar    1  UNL1       -0.2481
@<TRIPOS>BOND
     1    12    13    2
     2    13    14   am
     3    14    16    1
     4    16    17    1
     5    17    18   ar
     6    18    19   ar
     7    19    20   ar
     8    20    23    1
     9    23    24    1
    10    24    25    1
    11    24    26    1
    12    24    27    1
    13    20    21   ar
    14    21    22   ar
    15    13     1    1
    16     1     2    1
    17     2     3   ar
    18     3     4   ar
    19     4     5   ar
    20     5     6   ar
    21     6     7    1
    22     6     8   ar
    23     8     9    1
    24     9    10    2
    25     9    11   am
    26    11    28    1
    27    28    29    1
    28    29    30    1
    29    30    31   ar
    30    31    32   ar
    31    32    33   ar
    32    33    34   ar
    33    34    35   ar
    34    22    17   ar
    35    11     1    1
    36    35    30   ar
    37     8     2   ar
    38    14    15    1
@<TRIPOS>MOLECULE
*****
 35 38 0 0 0
SMALL
GASTEIGER

@<TRIPOS>ATOM
      1 C         139.5831  143.4675  160.6595 C.3     1  UNL1        0.1752
      2 C         139.2123  143.1763  159.2355 C.ar    1  UNL1        0.0111
      3 C         138.1127  142.3532  158.6328 C.ar    1  UNL1       -0.0019
      4 C         137.9883  142.2443  157.1420 C.ar    1  UNL1        0.0021
      5 C         138.9636  142.9585  156.2538 C.ar    1  UNL1        0.0298
      6 C         140.0632  143.7816  156.8565 C.ar    1  UNL1        0.1442
      7 F         141.0384  144.4958  155.9683 F       1  UNL1       -0.2040
      8 C         140.1876  143.8905  158.3473 C.ar    1  UNL1        0.0790
      9 C         141.1610  144.6230  159.2224 C.2     1  UNL1        0.2515
     10 O         142.3069  145.4686  158.7512 O.2     1  UNL1       -0.2698
     11 N         140.7874  144.3616  160.6514 N.am    1  UNL1       -0.2657
     12 O         137.6463  143.6539  162.3811 O.2     1  UNL1       -0.2729
     13 C         138.8739  142.9545  161.8777 C.2     1  UNL1        0.2451
     14 N         139.3925  141.7419  162.5925 N.am    1  UNL1       -0.2988
     15 H         140.1983  141.2828  162.2621 H       1  UNL1        0.1498
     16 C         138.6834  141.2290  163.8107 C.3     1  UNL1        0.1164
     17 C         139.3182  141.3687  165.1625 C.ar    1  UNL1       -0.0024
     18 C         139.4560  140.1703  166.0540 C.ar    1  UNL1        0.0005
     19 C         140.0908  140.3102  167.4058 C.ar    1  UNL1        0.0369
     20 C         140.5879  141.6485  167.8662 C.ar    1  UNL1        0.1468
     21 C         140.4502  142.8469  166.9747 C.ar    1  UNL1        0.0369
     22 C         139.8153  142.7071  165.6228 C.ar    1  UNL1        0.0005
     23 O         141.2228  141.7883  169.2180 O.3     1  UNL1       -0.4045
     24 C         142.6683  142.1723  169.3317 C.3     1  UNL1        0.5753
     25 F         144.1138  142.5563  169.4454 F       1  UNL1       -0.1328
     26 F         142.2716  143.4872  169.9347 F       1  UNL1       -0.1328
     27 F         143.0650  140.8574  168.7287 F       1  UNL1       -0.1328
     28 C         141.4941  144.8997  161.8601 C.3     1  UNL1        0.1007
     29 C         142.8578  144.3895  162.2207 C.3     1  UNL1        0.0673
     30 C         143.0070  143.3168  163.2585 C.ar    1  UNL1        0.0607
     31 C         143.6316  143.6374  164.5841 C.ar    1  UNL1        0.0148
     32 C         143.7808  142.5646  165.6219 C.ar    1  UNL1        0.0028
     33 C         143.3055  141.1713  165.3340 C.ar    1  UNL1        0.0207
     34 C         142.6810  140.8508  164.0084 C.ar    1  UNL1        0.0984
     35 N         142.5318  141.9235  162.9707 N.ar    1  UNL1       -0.2481
@<TRIPOS>BOND
     1    12    13    2
     2    13    14   am
     3    14    16    1
     4    16    17    1
     5    17    18   ar
     6    18    19   ar
     7    19    20   ar
     8    20    23    1
     9    23    24    1
    10    24    25    1
    11    24    26    1
    12    24    27    1
    13    20    21   ar
    14    21    22   ar
    15    13     1    1
    16     1     2    1
    17     2     3   ar
    18     3     4   ar
    19     4     5   ar
    20     5     6   ar
    21     6     7    1
    22     6     8   ar
    23     8     9    1
    24     9    10    2
    25     9    11   am
    26    11    28    1
    27    28    29    1
    28    29    30    1
    29    30    31   ar
    30    31    32   ar
    31    32    33   ar
    32    33    34   ar
    33    34    35   ar
    34    22    17   ar
    35    11     1    1
    36    35    30   ar
    37     8     2   ar
    38    14    15    1
@<TRIPOS>MOLECULE
*****
 35 38 0 0 0
SMALL
GASTEIGER

@<TRIPOS>ATOM
      1 C         140.4738  138.7183  162.1721 C.3     1  UNL1        0.1752
      2 C         141.0471  138.4454  160.8131 C.ar    1  UNL1        0.0111
      3 C         142.3894  137.9413  160.3727 C.ar    1  UNL1       -0.0019
      4 C         142.6819  137.7644  158.9122 C.ar    1  UNL1        0.0021
      5 C         141.6319  138.0914  157.8921 C.ar    1  UNL1        0.0298
      6 C         140.2896  138.5955  158.3324 C.ar    1  UNL1        0.1442
      7 F         139.2397  138.9225  157.3123 F       1  UNL1       -0.2040
      8 C         139.9971  138.7725  159.7929 C.ar    1  UNL1        0.0790
      9 C         138.7750  139.2475  160.5215 C.2     1  UNL1        0.2515
     10 O         137.4848  139.6801  159.8904 O.2     1  UNL1       -0.2698
     11 N         139.0696  139.2140  161.9919 N.am    1  UNL1       -0.2657
     12 O         140.5825  137.6454  164.5357 O.2     1  UNL1       -0.2729
     13 C         141.1807  138.5288  163.4814 C.2     1  UNL1        0.2451
     14 N         142.4859  139.2227  163.7365 N.am    1  UNL1       -0.2988
     15 H         142.8786  139.8025  163.0445 H       1  UNL1        0.1498
     16 C         143.1928  139.0331  165.0458 C.3     1  UNL1        0.1164
     17 C         142.9309  139.9758  166.1828 C.ar    1  UNL1       -0.0024
     18 C         143.0178  141.4572  165.9641 C.ar    1  UNL1        0.0005
     19 C         142.7558  142.3997  167.1012 C.ar    1  UNL1        0.0369
     20 C         142.4069  141.8610  168.4570 C.ar    1  UNL1        0.1468
     21 C         142.3200  140.3795  168.6756 C.ar    1  UNL1        0.0369
     22 C         142.5820  139.4369  167.5385 C.ar    1  UNL1        0.0005
     23 O         142.1450  142.8036  169.5939 O.3     1  UNL1       -0.4045
     24 C         140.7592  142.9391  170.1519 C.3     1  UNL1        0.5753
     25 F         139.3735  143.0745  170.7098 F       1  UNL1       -0.1328
     26 F         140.3560  143.7470  168.9542 F       1  UNL1       -0.1328
     27 F         141.1625  142.1311  171.3496 F       1  UNL1       -0.1328
     28 C         138.1257  139.6072  163.0894 C.3     1  UNL1        0.1007
     29 C         137.4428  140.9421  163.0489 C.3     1  UNL1        0.0673
     30 C         138.1067  142.1429  163.6549 C.ar    1  UNL1        0.0607
     31 C         138.9098  142.0004  164.9139 C.ar    1  UNL1        0.0148
     32 C         139.5737  143.2012  165.5200 C.ar    1  UNL1        0.0028
     33 C         139.4345  144.5445  164.8671 C.ar    1  UNL1        0.0207
     34 C         138.6315  144.6870  163.6082 C.ar    1  UNL1        0.0984
     35 N         137.9676  143.4862  163.0022 N.ar    1  UNL1       -0.2481
@<TRIPOS>BOND
     1    12    13    2
     2    13    14   am
     3    14    16    1
     4    16    17    1
     5    17    18   ar
     6    18    19   ar
     7    19    20   ar
     8    20    23    1
     9    23    24    1
    10    24    25    1
    11    24    26    1
    12    24    27    1
    13    20    21   ar
    14    21    22   ar
    15    13     1    1
    16     1     2    1
    17     2     3   ar
    18     3     4   ar
    19     4     5   ar
    20     5     6   ar
    21     6     7    1
    22     6     8   ar
    23     8     9    1
    24     9    10    2
    25     9    11   am
    26    11    28    1
    27    28    29    1
    28    29    30    1
    29    30    31   ar
    30    31    32   ar
    31    32    33   ar
    32    33    34   ar
    33    34    35   ar
    34    22    17   ar
    35    11     1    1
    36    35    30   ar
    37     8     2   ar
    38    14    15    1
@<TRIPOS>MOLECULE
*****
 35 38 0 0 0
SMALL
GASTEIGER

@<TRIPOS>ATOM
      1 C         143.8455  140.0736  161.6819 C.3     1  UNL1        0.1752
      2 C         143.4772  139.3516  160.4198 C.ar    1  UNL1        0.0111
      3 C         142.9563  137.9672  160.1709 C.ar    1  UNL1       -0.0019
      4 C         142.6728  137.5132  158.7697 C.ar    1  UNL1        0.0021
      5 C         142.9103  138.4436  157.6173 C.ar    1  UNL1        0.0298
      6 C         143.4312  139.8280  157.8662 C.ar    1  UNL1        0.1442
      7 F         143.6686  140.7584  156.7138 F       1  UNL1       -0.2040
      8 C         143.7146  140.2820  159.2674 C.ar    1  UNL1        0.0790
      9 C         144.2297  141.5790  159.8174 C.2     1  UNL1        0.2515
     10 O         144.5990  142.7919  159.0158 O.2     1  UNL1       -0.2698
     11 N         144.3106  141.4502  161.3097 N.am    1  UNL1       -0.2657
     12 O         144.9834  139.4932  163.9443 O.2     1  UNL1       -0.2729
     13 C         143.7632  139.5167  163.0723 C.2     1  UNL1        0.2451
     14 N         142.4605  138.9832  163.5907 N.am    1  UNL1       -0.2988
     15 H         141.6596  138.9987  163.0183 H       1  UNL1        0.1498
     16 C         142.3782  138.4263  164.9810 C.3     1  UNL1        0.1164
     17 C         141.7595  139.2395  166.0791 C.ar    1  UNL1       -0.0024
     18 C         140.2682  139.3794  166.1598 C.ar    1  UNL1        0.0005
     19 C         139.6495  140.1925  167.2580 C.ar    1  UNL1        0.0369
     20 C         140.5221  140.8659  168.2755 C.ar    1  UNL1        0.1468
     21 C         142.0133  140.7260  168.1948 C.ar    1  UNL1        0.0369
     22 C         142.6321  139.9128  167.0966 C.ar    1  UNL1        0.0005
     23 O         139.9033  141.6790  169.3736 O.3     1  UNL1       -0.4045
     24 C         140.4565  143.0327  169.7075 C.3     1  UNL1        0.5753
     25 F         141.0098  144.3863  170.0415 F       1  UNL1       -0.1328
     26 F         140.7922  142.5547  171.0892 F       1  UNL1       -0.1328
     27 F         140.1209  143.5106  168.3259 F       1  UNL1       -0.1328
     28 C         144.7750  142.5117  162.2624 C.3     1  UNL1        0.1007
     29 C         143.9986  143.7877  162.4001 C.3     1  UNL1        0.0673
     30 C         142.7537  143.8216  163.2362 C.ar    1  UNL1        0.0607
     31 C         142.5673  142.8281  164.3445 C.ar    1  UNL1        0.0148
     32 C         141.3224  142.8621  165.1806 C.ar    1  UNL1        0.0028
     33 C         140.2639  143.8896  164.9084 C.ar    1  UNL1        0.0207
     34 C         140.4504  144.8830  163.8002 C.ar    1  UNL1        0.0984
     35 N         141.6953  144.8490  162.9640 N.ar    1  UNL1       -0.2481
@<TRIPOS>BOND
     1    12    13    2
     2    13    14   am
     3    14    16    1
     4    16    17    1
     5    17    18   ar
     6    18    19   ar
     7    19    20   ar
     8    20    23    1
     9    23    24    1
    10    24    25    1
    11    24    26    1
    12    24    27    1
    13    20    21   ar
    14    21    22   ar
    15    13     1    1
    16     1     2    1
    17     2     3   ar
    18     3     4   ar
    19     4     5   ar
    20     5     6   ar
    21     6     7    1
    22     6     8   ar
    23     8     9    1
    24     9    10    2
    25     9    11   am
    26    11    28    1
    27    28    29    1
    28    29    30    1
    29    30    31   ar
    30    31    32   ar
    31    32    33   ar
    32    33    34   ar
    33    34    35   ar
    34    22    17   ar
    35    11     1    1
    36    35    30   ar
    37     8     2   ar
    38    14    15    1
@<TRIPOS>MOLECULE
*****
 35 38 0 0 0
SMALL
GASTEIGER

@<TRIPOS>ATOM
      1 C         140.7145  141.3793  166.5692 C.3     1  UNL1        0.1752
      2 C         141.0616  141.8950  167.9344 C.ar    1  UNL1        0.0111
      3 C         140.6006  143.1002  168.6991 C.ar    1  UNL1       -0.0019
      4 C         141.1340  143.3640  170.0760 C.ar    1  UNL1        0.0021
      5 C         142.1284  142.4225  170.6882 C.ar    1  UNL1        0.0298
      6 C         142.5894  141.2173  169.9234 C.ar    1  UNL1        0.1442
      7 F         143.5839  140.2758  170.5356 F       1  UNL1       -0.2040
      8 C         142.0560  140.9535  168.5465 C.ar    1  UNL1        0.0790
      9 C         142.3235  139.8560  167.5597 C.2     1  UNL1        0.2515
     10 O         143.2564  138.6985  167.7598 O.2     1  UNL1       -0.2698
     11 N         141.4945  140.1191  166.3377 N.am    1  UNL1       -0.2657
     12 O         138.5898  141.2275  165.0819 O.2     1  UNL1       -0.2729
     13 C         139.7558  142.0127  165.6050 C.2     1  UNL1        0.2451
     14 N         139.9633  143.4313  165.1638 N.am    1  UNL1       -0.2988
     15 H         140.7286  143.9467  165.5071 H       1  UNL1        0.1498
     16 C         139.0046  144.0647  164.1995 C.3     1  UNL1        0.1164
     17 C         139.3672  144.1807  162.7487 C.ar    1  UNL1       -0.0024
     18 C         139.0493  143.0596  161.8041 C.ar    1  UNL1        0.0005
     19 C         139.4119  143.1757  160.3533 C.ar    1  UNL1        0.0369
     20 C         140.0925  144.4129  159.8469 C.ar    1  UNL1        0.1468
     21 C         140.4104  145.5339  160.7914 C.ar    1  UNL1        0.0369
     22 C         140.0477  145.4178  162.2424 C.ar    1  UNL1        0.0005
     23 O         140.4551  144.5289  158.3960 O.3     1  UNL1       -0.4045
     24 C         141.5166  145.4962  157.9632 C.3     1  UNL1        0.5753
     25 F         142.5782  146.4636  157.5304 F       1  UNL1       -0.1328
     26 F         142.5764  144.5270  158.3962 F       1  UNL1       -0.1328
     27 F         140.4569  146.4655  157.5302 F       1  UNL1       -0.1328
     28 C         141.4526  139.2710  165.1012 C.3     1  UNL1        0.1007
     29 C         142.5797  139.3294  164.1131 C.3     1  UNL1        0.0673
     30 C         143.1748  140.6524  163.7316 C.ar    1  UNL1        0.0607
     31 C         142.3443  141.6656  163.0008 C.ar    1  UNL1        0.0148
     32 C         142.9394  142.9885  162.6193 C.ar    1  UNL1        0.0028
     33 C         144.3650  143.2984  162.9684 C.ar    1  UNL1        0.0207
     34 C         145.1954  142.2852  163.6991 C.ar    1  UNL1        0.0984
     35 N         144.6003  140.9623  164.0807 N.ar    1  UNL1       -0.2481
@<TRIPOS>BOND
     1    12    13    2
     2    13    14   am
     3    14    16    1
     4    16    17    1
     5    17    18   ar
     6    18    19   ar
     7    19    20   ar
     8    20    23    1
     9    23    24    1
    10    24    25    1
    11    24    26    1
    12    24    27    1
    13    20    21   ar
    14    21    22   ar
    15    13     1    1
    16     1     2    1
    17     2     3   ar
    18     3     4   ar
    19     4     5   ar
    20     5     6   ar
    21     6     7    1
    22     6     8   ar
    23     8     9    1
    24     9    10    2
    25     9    11   am
    26    11    28    1
    27    28    29    1
    28    29    30    1
    29    30    31   ar
    30    31    32   ar
    31    32    33   ar
    32    33    34   ar
    33    34    35   ar
    34    22    17   ar
    35    11     1    1
    36    35    30   ar
    37     8     2   ar
    38    14    15    1
@<TRIPOS>MOLECULE
*****
 35 38 0 0 0
SMALL
GASTEIGER

@<TRIPOS>ATOM
      1 C         139.8738  142.6804  161.5106 C.3     1  UNL1        0.1752
      2 C         140.3588  142.8646  160.1032 C.ar    1  UNL1        0.0111
      3 C         140.9174  141.8998  159.0997 C.ar    1  UNL1       -0.0019
      4 C         141.3263  142.3844  157.7404 C.ar    1  UNL1        0.0021
      5 C         141.1767  143.8339  157.3845 C.ar    1  UNL1        0.0298
      6 C         140.6182  144.7987  158.3880 C.ar    1  UNL1        0.1442
      7 F         140.4686  146.2482  158.0322 F       1  UNL1       -0.2040
      8 C         140.2092  144.3141  159.7474 C.ar    1  UNL1        0.0790
      9 C         139.6317  145.0257  160.9349 C.2     1  UNL1        0.2515
     10 O         139.3168  146.4899  161.0180 O.2     1  UNL1       -0.2698
     11 N         139.4244  144.0160  162.0246 N.am    1  UNL1       -0.2657
     12 O         138.5506  140.8812  162.8380 O.2     1  UNL1       -0.2729
     13 C         139.8434  141.3875  162.2706 C.2     1  UNL1        0.2451
     14 N         141.1061  140.6009  162.4632 N.am    1  UNL1       -0.2988
     15 H         141.9548  140.9333  162.0908 H       1  UNL1        0.1498
     16 C         141.0758  139.3081  163.2232 C.3     1  UNL1        0.1164
     17 C         141.5929  139.2529  164.6301 C.ar    1  UNL1       -0.0024
     18 C         142.9464  138.6698  164.9095 C.ar    1  UNL1        0.0005
     19 C         143.4634  138.6147  166.3165 C.ar    1  UNL1        0.0369
     20 C         142.6269  139.1427  167.4442 C.ar    1  UNL1        0.1468
     21 C         141.2735  139.7258  167.1648 C.ar    1  UNL1        0.0369
     22 C         140.7564  139.7809  165.7577 C.ar    1  UNL1        0.0005
     23 O         143.1440  139.0875  168.8511 O.3     1  UNL1       -0.4045
     24 C         142.5521  139.9779  169.9032 C.3     1  UNL1        0.5753
     25 F         141.9602  140.8682  170.9553 F       1  UNL1       -0.1328
     26 F         141.6357  138.8684  170.3266 F       1  UNL1       -0.1328
     27 F         143.4685  141.0874  169.4798 F       1  UNL1       -0.1328
     28 C         138.8658  144.2933  163.3888 C.3     1  UNL1        0.1007
     29 C         139.7834  144.6795  164.5107 C.3     1  UNL1        0.0673
     30 C         141.2448  144.3506  164.4315 C.ar    1  UNL1        0.0607
     31 C         141.7608  143.0777  165.0345 C.ar    1  UNL1        0.0148
     32 C         143.2221  142.7487  164.9552 C.ar    1  UNL1        0.0028
     33 C         144.1674  143.6926  164.2730 C.ar    1  UNL1        0.0207
     34 C         143.6514  144.9654  163.6700 C.ar    1  UNL1        0.0984
     35 N         142.1901  145.2944  163.7493 N.ar    1  UNL1       -0.2481
@<TRIPOS>BOND
     1    12    13    2
     2    13    14   am
     3    14    16    1
     4    16    17    1
     5    17    18   ar
     6    18    19   ar
     7    19    20   ar
     8    20    23    1
     9    23    24    1
    10    24    25    1
    11    24    26    1
    12    24    27    1
    13    20    21   ar
    14    21    22   ar
    15    13     1    1
    16     1     2    1
    17     2     3   ar
    18     3     4   ar
    19     4     5   ar
    20     5     6   ar
    21     6     7    1
    22     6     8   ar
    23     8     9    1
    24     9    10    2
    25     9    11   am
    26    11    28    1
    27    28    29    1
    28    29    30    1
    29    30    31   ar
    30    31    32   ar
    31    32    33   ar
    32    33    34   ar
    33    34    35   ar
    34    22    17   ar
    35    11     1    1
    36    35    30   ar
    37     8     2   ar
    38    14    15    1
@<TRIPOS>MOLECULE
*****
 35 38 0 0 0
SMALL
GASTEIGER

@<TRIPOS>ATOM
      1 C         140.7173  140.6528  166.3662 C.3     1  UNL1        0.1752
      2 C         140.5805  140.7714  167.8552 C.ar    1  UNL1        0.0111
      3 C         139.5761  140.2119  168.8186 C.ar    1  UNL1       -0.0019
      4 C         139.6978  140.5066  170.2842 C.ar    1  UNL1        0.0021
      5 C         140.8238  141.3609  170.7866 C.ar    1  UNL1        0.0298
      6 C         141.8281  141.9204  169.8232 C.ar    1  UNL1        0.1442
      7 F         142.9541  142.7747  170.3255 F       1  UNL1       -0.2040
      8 C         141.7065  141.6257  168.3575 C.ar    1  UNL1        0.0790
      9 C         142.5392  142.0351  167.1789 C.2     1  UNL1        0.2515
     10 O         143.7675  142.8948  167.2233 O.2     1  UNL1       -0.2698
     11 N         141.9278  141.4338  165.9482 N.am    1  UNL1       -0.2657
     12 O         138.4065  140.3753  165.2115 O.2     1  UNL1       -0.2729
     13 C         139.8039  139.8876  165.4551 C.2     1  UNL1        0.2451
     14 N         140.2879  138.6345  164.7874 N.am    1  UNL1       -0.2988
     15 H         141.2051  138.3144  164.9472 H       1  UNL1        0.1498
     16 C         139.3745  137.8693  163.8763 C.3     1  UNL1        0.1164
     17 C         139.1137  138.3666  162.4855 C.ar    1  UNL1       -0.0024
     18 C         137.8165  139.0476  162.1633 C.ar    1  UNL1        0.0005
     19 C         137.5558  139.5449  160.7724 C.ar    1  UNL1        0.0369
     20 C         138.5921  139.3614  159.7036 C.ar    1  UNL1        0.1468
     21 C         139.8892  138.6804  160.0257 C.ar    1  UNL1        0.0369
     22 C         140.1500  138.1831  161.4167 C.ar    1  UNL1        0.0005
     23 O         138.3313  139.8587  158.3127 O.3     1  UNL1       -0.4045
     24 C         137.9743  141.2978  158.0854 C.3     1  UNL1        0.5753
     25 F         137.6174  142.7368  157.8580 F       1  UNL1       -0.1328
     26 F         139.2194  141.7207  158.8070 F       1  UNL1       -0.1328
     27 F         136.7292  140.8749  157.3637 F       1  UNL1       -0.1328
     28 C         142.4375  141.5867  164.5457 C.3     1  UNL1        0.1007
     29 C         142.0380  142.7793  163.7284 C.3     1  UNL1        0.0673
     30 C         140.5871  143.1192  163.5571 C.ar    1  UNL1        0.0607
     31 C         139.7931  142.4843  162.4541 C.ar    1  UNL1        0.0148
     32 C         138.3422  142.8243  162.2829 C.ar    1  UNL1        0.0028
     33 C         137.6853  143.7991  163.2147 C.ar    1  UNL1        0.0207
     34 C         138.4792  144.4339  164.3177 C.ar    1  UNL1        0.0984
     35 N         139.9301  144.0940  164.4889 N.ar    1  UNL1       -0.2481
@<TRIPOS>BOND
     1    12    13    2
     2    13    14   am
     3    14    16    1
     4    16    17    1
     5    17    18   ar
     6    18    19   ar
     7    19    20   ar
     8    20    23    1
     9    23    24    1
    10    24    25    1
    11    24    26    1
    12    24    27    1
    13    20    21   ar
    14    21    22   ar
    15    13     1    1
    16     1     2    1
    17     2     3   ar
    18     3     4   ar
    19     4     5   ar
    20     5     6   ar
    21     6     7    1
    22     6     8   ar
    23     8     9    1
    24     9    10    2
    25     9    11   am
    26    11    28    1
    27    28    29    1
    28    29    30    1
    29    30    31   ar
    30    31    32   ar
    31    32    33   ar
    32    33    34   ar
    33    34    35   ar
    34    22    17   ar
    35    11     1    1
    36    35    30   ar
    37     8     2   ar
    38    14    15    1
@<TRIPOS>MOLECULE
*****
 35 38 0 0 0
SMALL
GASTEIGER

@<TRIPOS>ATOM
      1 C         139.0400  140.8964  160.7908 C.3     1  UNL1        0.1752
      2 C         139.2015  141.6127  159.4829 C.ar    1  UNL1        0.0111
      3 C         139.0551  143.0569  159.1047 C.ar    1  UNL1       -0.0019
      4 C         139.2842  143.4876  157.6863 C.ar    1  UNL1        0.0021
      5 C         139.6596  142.4742  156.6460 C.ar    1  UNL1        0.0298
      6 C         139.8060  141.0301  157.0242 C.ar    1  UNL1        0.1442
      7 F         140.1814  140.0167  155.9840 F       1  UNL1       -0.2040
      8 C         139.5769  140.5994  158.4426 C.ar    1  UNL1        0.0790
      9 C         139.6475  139.2567  159.1077 C.2     1  UNL1        0.2515
     10 O         139.9898  137.9585  158.4389 O.2     1  UNL1       -0.2698
     11 N         139.3157  139.4403  160.5590 N.am    1  UNL1       -0.2657
     12 O         137.2240  141.6859  162.4726 O.2     1  UNL1       -0.2729
     13 C         138.6682  141.5257  162.1007 C.2     1  UNL1        0.2451
     14 N         139.7407  141.9948  163.0387 N.am    1  UNL1       -0.2988
     15 H         140.6887  141.8896  162.7946 H       1  UNL1        0.1498
     16 C         139.3689  142.6241  164.3485 C.3     1  UNL1        0.1164
     17 C         139.6044  141.8821  165.6306 C.ar    1  UNL1       -0.0024
     18 C         139.0267  140.5109  165.8207 C.ar    1  UNL1        0.0005
     19 C         139.2622  139.7689  167.1029 C.ar    1  UNL1        0.0369
     20 C         140.0755  140.3980  168.1950 C.ar    1  UNL1        0.1468
     21 C         140.6533  141.7692  168.0050 C.ar    1  UNL1        0.0369
     22 C         140.4177  142.5112  166.7228 C.ar    1  UNL1        0.0005
     23 O         140.3110  139.6560  169.4772 O.3     1  UNL1       -0.4045
     24 C         141.6289  139.7778  170.1831 C.3     1  UNL1        0.5753
     25 F         142.9468  139.8995  170.8890 F       1  UNL1       -0.1328
     26 F         140.9669  140.5495  171.2859 F       1  UNL1       -0.1328
     27 F         142.2909  139.0060  169.0803 F       1  UNL1       -0.1328
     28 C         139.2679  138.3578  161.5962 C.3     1  UNL1        0.1007
     29 C         140.5411  137.7466  162.1016 C.3     1  UNL1        0.0673
     30 C         141.3160  138.4231  163.1933 C.ar    1  UNL1        0.0607
     31 C         141.5343  137.7237  164.5023 C.ar    1  UNL1        0.0148
     32 C         142.3093  138.4002  165.5940 C.ar    1  UNL1        0.0028
     33 C         142.8660  139.7760  165.3767 C.ar    1  UNL1        0.0207
     34 C         142.6478  140.4753  164.0678 C.ar    1  UNL1        0.0984
     35 N         141.8728  139.7989  162.9761 N.ar    1  UNL1       -0.2481
@<TRIPOS>BOND
     1    12    13    2
     2    13    14   am
     3    14    16    1
     4    16    17    1
     5    17    18   ar
     6    18    19   ar
     7    19    20   ar
     8    20    23    1
     9    23    24    1
    10    24    25    1
    11    24    26    1
    12    24    27    1
    13    20    21   ar
    14    21    22   ar
    15    13     1    1
    16     1     2    1
    17     2     3   ar
    18     3     4   ar
    19     4     5   ar
    20     5     6   ar
    21     6     7    1
    22     6     8   ar
    23     8     9    1
    24     9    10    2
    25     9    11   am
    26    11    28    1
    27    28    29    1
    28    29    30    1
    29    30    31   ar
    30    31    32   ar
    31    32    33   ar
    32    33    34   ar
    33    34    35   ar
    34    22    17   ar
    35    11     1    1
    36    35    30   ar
    37     8     2   ar
    38    14    15    1
@<TRIPOS>MOLECULE
*****
 35 38 0 0 0
SMALL
GASTEIGER

@<TRIPOS>ATOM
      1 C         139.2129  142.7263  158.7477 C.3     1  UNL1        0.1752
      2 C         138.4409  142.8924  157.4724 C.ar    1  UNL1        0.0111
      3 C         137.3835  142.0502  156.8223 C.ar    1  UNL1       -0.0019
      4 C         136.7797  142.4793  155.5180 C.ar    1  UNL1        0.0021
      5 C         137.2333  143.7506  154.8638 C.ar    1  UNL1        0.0298
      6 C         138.2908  144.5927  155.5138 C.ar    1  UNL1        0.1442
      7 F         138.7444  145.8640  154.8595 F       1  UNL1       -0.2040
      8 C         138.8945  144.1636  156.8181 C.ar    1  UNL1        0.0790
      9 C         139.9469  144.7833  157.6891 C.2     1  UNL1        0.2515
     10 O         140.6747  146.0660  157.4155 O.2     1  UNL1       -0.2698
     11 N         140.1437  143.8950  158.8816 N.am    1  UNL1       -0.2657
     12 O         139.8720  140.3344  159.5184 O.2     1  UNL1       -0.2729
     13 C         139.0778  141.5910  159.7186 C.2     1  UNL1        0.2451
     14 N         138.1485  141.7123  160.8899 N.am    1  UNL1       -0.2988
     15 H         137.6272  142.5370  161.0213 H       1  UNL1        0.1498
     16 C         138.0134  140.5769  161.8608 C.3     1  UNL1        0.1164
     17 C         138.7468  140.6173  163.1686 C.ar    1  UNL1       -0.0024
     18 C         138.0139  140.3432  164.4483 C.ar    1  UNL1        0.0005
     19 C         138.7474  140.3836  165.7561 C.ar    1  UNL1        0.0369
     20 C         140.2139  140.6981  165.7843 C.ar    1  UNL1        0.1468
     21 C         140.9467  140.9722  164.5046 C.ar    1  UNL1        0.0369
     22 C         140.2132  140.9318  163.1967 C.ar    1  UNL1        0.0005
     23 O         140.9473  140.7385  167.0921 O.3     1  UNL1       -0.4045
     24 C         140.2564  141.2432  168.3242 C.3     1  UNL1        0.5753
     25 F         139.5656  141.7479  169.5563 F       1  UNL1       -0.1328
     26 F         140.2733  142.6345  167.7637 F       1  UNL1       -0.1328
     27 F         140.2396  139.8520  168.8846 F       1  UNL1       -0.1328
     28 C         141.1028  144.1334  160.0100 C.3     1  UNL1        0.1007
     29 C         140.7974  145.1734  161.0469 C.3     1  UNL1        0.0673
     30 C         139.9551  144.8210  162.2371 C.ar    1  UNL1        0.0607
     31 C         140.5777  144.7424  163.5996 C.ar    1  UNL1        0.0148
     32 C         139.7355  144.3901  164.7898 C.ar    1  UNL1        0.0028
     33 C         138.2707  144.1164  164.6175 C.ar    1  UNL1        0.0207
     34 C         137.6483  144.1950  163.2550 C.ar    1  UNL1        0.0984
     35 N         138.4905  144.5473  162.0648 N.ar    1  UNL1       -0.2481
@<TRIPOS>BOND
     1    12    13    2
     2    13    14   am
     3    14    16    1
     4    16    17    1
     5    17    18   ar
     6    18    19   ar
     7    19    20   ar
     8    20    23    1
     9    23    24    1
    10    24    25    1
    11    24    26    1
    12    24    27    1
    13    20    21   ar
    14    21    22   ar
    15    13     1    1
    16     1     2    1
    17     2     3   ar
    18     3     4   ar
    19     4     5   ar
    20     5     6   ar
    21     6     7    1
    22     6     8   ar
    23     8     9    1
    24     9    10    2
    25     9    11   am
    26    11    28    1
    27    28    29    1
    28    29    30    1
    29    30    31   ar
    30    31    32   ar
    31    32    33   ar
    32    33    34   ar
    33    34    35   ar
    34    22    17   ar
    35    11     1    1
    36    35    30   ar
    37     8     2   ar
    38    14    15    1
