@<TRIPOS>MOLECULE
*****
 30 34 0 0 0
SMALL
GASTEIGER

@<TRIPOS>ATOM
      1 C         141.5753  143.4020  162.8862 C.ar    1  UNL1        0.0884
      2 C         142.8769  143.7789  163.5294 C.ar    1  UNL1        0.0197
      3 C         143.3482  143.0492  164.7522 C.ar    1  UNL1        0.0030
      4 C         142.5179  141.9425  165.3318 C.ar    1  UNL1        0.0174
      5 C         142.9892  141.2127  166.5547 C.ar    1  UNL1       -0.0027
      6 C         142.1589  140.1061  167.1343 C.ar    1  UNL1       -0.0207
      7 C         140.8573  139.7292  166.4910 C.ar    1  UNL1       -0.0027
      8 C         140.3860  140.4590  165.2682 C.ar    1  UNL1        0.0188
      9 C         141.2163  141.5656  164.6886 C.ar    1  UNL1        0.0812
     10 N         140.7450  142.2954  163.4658 N.ar    1  UNL1       -0.2448
     11 C         139.0610  145.4774  162.7407 C.3     1  UNL1        0.0527
     12 C         139.9483  145.0857  161.5965 C.ar    1  UNL1        0.0674
     13 N         139.8357  145.5792  160.1845 N.ar    1  UNL1       -0.2411
     14 C         140.9218  144.9303  159.3786 C.ar    1  UNL1        0.1280
     15 S         141.7056  144.0358  160.2926 S.2     1  UNL1       -0.0638
     16 C         141.1040  144.1318  161.6633 C.ar    1  UNL1        0.0620
     17 C         141.1789  145.1393  157.9157 C.ar    1  UNL1        0.1050
     18 C         140.3621  146.1339  157.1452 C.ar    1  UNL1        0.0212
     19 C         140.6192  146.3429  155.6823 C.ar    1  UNL1        0.0032
     20 C         141.6930  145.5572  154.9898 C.ar    1  UNL1        0.0207
     21 C         142.5098  144.5625  155.7603 C.ar    1  UNL1        0.0989
     22 N         142.2527  144.3536  157.2232 N.ar    1  UNL1       -0.2418
     23 C         142.6302  139.3763  168.3571 C.3     1  UNL1        0.0437
     24 C         142.4494  139.9907  169.7135 C.3     1  UNL1        0.0768
     25 N         141.7337  141.3015  169.8537 N.3     1  UNL1       -0.2737
     26 C         142.3790  142.6514  169.9604 C.3     1  UNL1        0.0721
     27 C         141.2912  143.6767  170.0845 C.3     1  UNL1        0.0187
     28 C         139.9736  142.9605  170.0546 C.3     1  UNL1        0.0174
     29 C         140.2471  141.4925  169.9120 C.3     1  UNL1        0.0576
     30 C         139.2151  140.4063  169.8402 C.3     1  UNL1        0.0173
@<TRIPOS>BOND
     1    11    12    1
     2    12    13   ar
     3    13    14   ar
     4    14    17    1
     5    17    18   ar
     6    18    19   ar
     7    19    20   ar
     8    20    21   ar
     9    21    22   ar
    10    14    15   ar
    11    15    16   ar
    12    16     1    1
    13     1     2   ar
    14     2     3   ar
    15     3     4   ar
    16     4     5   ar
    17     5     6   ar
    18     6    23    1
    19    23    24    1
    20    24    25    1
    21    25    26    1
    22    26    27    1
    23    27    28    1
    24    28    29    1
    25    29    30    1
    26     6     7   ar
    27     7     8   ar
    28     8     9   ar
    29     9    10   ar
    30    16    12   ar
    31    10     1   ar
    32    22    17   ar
    33     9     4   ar
    34    29    25    1
@<TRIPOS>MOLECULE
*****
 30 34 0 0 0
SMALL
GASTEIGER

@<TRIPOS>ATOM
      1 C         141.7104  138.5685  159.4484 C.ar    1  UNL1        0.0884
      2 C         140.2246  138.6491  159.2593 C.ar    1  UNL1        0.0197
      3 C         139.3074  138.4361  160.4268 C.ar    1  UNL1        0.0030
      4 C         139.8760  138.1426  161.7835 C.ar    1  UNL1        0.0174
      5 C         138.9586  137.9296  162.9511 C.ar    1  UNL1       -0.0027
      6 C         139.5272  137.6361  164.3078 C.ar    1  UNL1       -0.0207
      7 C         141.0131  137.5555  164.4968 C.ar    1  UNL1       -0.0027
      8 C         141.9304  137.7685  163.3293 C.ar    1  UNL1        0.0188
      9 C         141.3618  138.0620  161.9726 C.ar    1  UNL1        0.0812
     10 N         142.2790  138.2750  160.8050 N.ar    1  UNL1       -0.2448
     11 C         142.1191  136.5298  156.9331 C.3     1  UNL1        0.0527
     12 C         142.8156  137.8444  157.1247 C.ar    1  UNL1        0.0674
     13 N         143.8222  138.4527  156.1937 N.ar    1  UNL1       -0.2411
     14 C         144.2565  139.7658  156.7745 C.ar    1  UNL1        0.1280
     15 S         143.5183  139.9690  158.0643 S.2     1  UNL1       -0.0638
     16 C         142.6278  138.7815  158.2808 C.ar    1  UNL1        0.0620
     17 C         145.2539  140.7099  156.1712 C.ar    1  UNL1        0.1050
     18 C         145.5644  140.6371  154.7055 C.ar    1  UNL1        0.0212
     19 C         146.5617  141.5812  154.1023 C.ar    1  UNL1        0.0032
     20 C         147.2486  142.5981  154.9648 C.ar    1  UNL1        0.0207
     21 C         146.9382  142.6710  156.4305 C.ar    1  UNL1        0.0989
     22 N         145.9408  141.7269  157.0337 N.ar    1  UNL1       -0.2418
     23 C         138.6100  137.4231  165.4753 C.3     1  UNL1        0.0437
     24 C         138.0997  138.6002  166.2528 C.3     1  UNL1        0.0768
     25 N         138.9599  139.8173  166.4216 N.3     1  UNL1       -0.2737
     26 C         139.9685  140.0403  167.5092 C.3     1  UNL1        0.0721
     27 C         140.5944  141.3860  167.2923 C.3     1  UNL1        0.0187
     28 C         139.9726  141.9948  166.0705 C.3     1  UNL1        0.0174
     29 C         138.9624  141.0253  165.5324 C.3     1  UNL1        0.0576
     30 C         138.1053  141.2282  164.3182 C.3     1  UNL1        0.0173
@<TRIPOS>BOND
     1    11    12    1
     2    12    13   ar
     3    13    14   ar
     4    14    17    1
     5    17    18   ar
     6    18    19   ar
     7    19    20   ar
     8    20    21   ar
     9    21    22   ar
    10    14    15   ar
    11    15    16   ar
    12    16     1    1
    13     1     2   ar
    14     2     3   ar
    15     3     4   ar
    16     4     5   ar
    17     5     6   ar
    18     6    23    1
    19    23    24    1
    20    24    25    1
    21    25    26    1
    22    26    27    1
    23    27    28    1
    24    28    29    1
    25    29    30    1
    26     6     7   ar
    27     7     8   ar
    28     8     9   ar
    29     9    10   ar
    30    16    12   ar
    31    10     1   ar
    32    22    17   ar
    33     9     4   ar
    34    29    25    1
@<TRIPOS>MOLECULE
*****
 30 34 0 0 0
SMALL
GASTEIGER

@<TRIPOS>ATOM
      1 C         141.2844  144.1602  162.6442 C.ar    1  UNL1        0.0884
      2 C         140.2661  145.2538  162.5149 C.ar    1  UNL1        0.0197
      3 C         139.9797  145.8569  161.1716 C.ar    1  UNL1        0.0030
      4 C         140.7117  145.3662  159.9578 C.ar    1  UNL1        0.0174
      5 C         140.4253  145.9693  158.6145 C.ar    1  UNL1       -0.0027
      6 C         141.1573  145.4786  157.4006 C.ar    1  UNL1       -0.0207
      7 C         142.1757  144.3848  157.5301 C.ar    1  UNL1       -0.0027
      8 C         142.4621  143.7818  158.8733 C.ar    1  UNL1        0.0188
      9 C         141.7301  144.2725  160.0872 C.ar    1  UNL1        0.0812
     10 N         142.0164  143.6695  161.4304 N.ar    1  UNL1       -0.2448
     11 C         144.2399  143.4927  163.8566 C.3     1  UNL1        0.0527
     12 C         142.9293  143.2503  164.5448 C.ar    1  UNL1        0.0674
     13 N         142.7470  142.6585  165.9110 N.ar    1  UNL1       -0.2411
     14 C         141.2759  142.5996  166.1982 C.ar    1  UNL1        0.1280
     15 S         140.5490  143.1549  165.0094 S.2     1  UNL1       -0.0638
     16 C         141.5708  143.5571  163.9875 C.ar    1  UNL1        0.0620
     17 C         140.6429  142.0771  167.4537 C.ar    1  UNL1        0.1050
     18 C         140.6063  142.9308  168.6865 C.ar    1  UNL1        0.0212
     19 C         139.9733  142.4083  169.9420 C.ar    1  UNL1        0.0032
     20 C         139.3769  141.0321  169.9647 C.ar    1  UNL1        0.0207
     21 C         139.4136  140.1784  168.7318 C.ar    1  UNL1        0.0989
     22 N         140.0466  140.7009  167.4763 N.ar    1  UNL1       -0.2418
     23 C         140.8710  146.0816  156.0574 C.3     1  UNL1        0.0437
     24 C         139.4858  146.5529  155.7267 C.3     1  UNL1        0.0768
     25 N         139.1799  148.0210  155.6981 N.3     1  UNL1       -0.2737
     26 C         138.4702  148.7948  156.7694 C.3     1  UNL1        0.0721
     27 C         138.3817  150.2252  156.3266 C.3     1  UNL1        0.0187
     28 C         139.0367  150.3355  154.9816 C.3     1  UNL1        0.0174
     29 C         139.5300  148.9732  154.5932 C.3     1  UNL1        0.0576
     30 C         140.2474  148.6244  153.3230 C.3     1  UNL1        0.0173
@<TRIPOS>BOND
     1    11    12    1
     2    12    13   ar
     3    13    14   ar
     4    14    17    1
     5    17    18   ar
     6    18    19   ar
     7    19    20   ar
     8    20    21   ar
     9    21    22   ar
    10    14    15   ar
    11    15    16   ar
    12    16     1    1
    13     1     2   ar
    14     2     3   ar
    15     3     4   ar
    16     4     5   ar
    17     5     6   ar
    18     6    23    1
    19    23    24    1
    20    24    25    1
    21    25    26    1
    22    26    27    1
    23    27    28    1
    24    28    29    1
    25    29    30    1
    26     6     7   ar
    27     7     8   ar
    28     8     9   ar
    29     9    10   ar
    30    16    12   ar
    31    10     1   ar
    32    22    17   ar
    33     9     4   ar
    34    29    25    1
@<TRIPOS>MOLECULE
*****
 30 34 0 0 0
SMALL
GASTEIGER

@<TRIPOS>ATOM
      1 C         140.1126  138.6122  162.4604 C.ar    1  UNL1        0.0884
      2 C         139.2866  137.5343  163.0974 C.ar    1  UNL1        0.0197
      3 C         138.9119  137.6342  164.5463 C.ar    1  UNL1        0.0030
      4 C         139.3632  138.8119  165.3583 C.ar    1  UNL1        0.0174
      5 C         138.9884  138.9116  166.8074 C.ar    1  UNL1       -0.0027
      6 C         139.4397  140.0893  167.6194 C.ar    1  UNL1       -0.0207
      7 C         140.2658  141.1673  166.9823 C.ar    1  UNL1       -0.0027
      8 C         140.6405  141.0675  165.5333 C.ar    1  UNL1        0.0188
      9 C         140.1892  139.8898  164.7213 C.ar    1  UNL1        0.0812
     10 N         140.5639  139.7899  163.2724 N.ar    1  UNL1       -0.2448
     11 C         143.1043  138.0428  161.2875 C.3     1  UNL1        0.0527
     12 C         141.8625  138.2507  160.4723 C.ar    1  UNL1        0.0674
     13 N         141.7778  138.2334  158.9748 N.ar    1  UNL1       -0.2411
     14 C         140.3503  138.4844  158.5883 C.ar    1  UNL1        0.1280
     15 S         139.5528  138.6569  159.8470 S.2     1  UNL1       -0.0638
     16 C         140.4874  138.5124  161.0113 C.ar    1  UNL1        0.0620
     17 C         139.8144  138.5513  157.1889 C.ar    1  UNL1        0.1050
     18 C         139.5941  137.2890  156.4091 C.ar    1  UNL1        0.0212
     19 C         139.0582  137.3558  155.0097 C.ar    1  UNL1        0.0032
     20 C         138.7427  138.6849  154.3901 C.ar    1  UNL1        0.0207
     21 C         138.9630  139.9472  155.1699 C.ar    1  UNL1        0.0989
     22 N         139.4989  139.8804  156.5693 N.ar    1  UNL1       -0.2418
     23 C         139.0650  140.1892  169.0683 C.3     1  UNL1        0.0437
     24 C         140.1231  140.0797  170.1260 C.3     1  UNL1        0.0768
     25 N         141.3199  140.9830  170.0858 N.3     1  UNL1       -0.2737
     26 C         142.7457  140.5503  169.9129 C.3     1  UNL1        0.0721
     27 C         143.6081  141.7774  169.9318 C.3     1  UNL1        0.0187
     28 C         142.7152  142.9686  170.1163 C.3     1  UNL1        0.0174
     29 C         141.3011  142.4776  170.2115 C.3     1  UNL1        0.0576
     30 C         140.0821  143.3313  170.3995 C.3     1  UNL1        0.0173
@<TRIPOS>BOND
     1    11    12    1
     2    12    13   ar
     3    13    14   ar
     4    14    17    1
     5    17    18   ar
     6    18    19   ar
     7    19    20   ar
     8    20    21   ar
     9    21    22   ar
    10    14    15   ar
    11    15    16   ar
    12    16     1    1
    13     1     2   ar
    14     2     3   ar
    15     3     4   ar
    16     4     5   ar
    17     5     6   ar
    18     6    23    1
    19    23    24    1
    20    24    25    1
    21    25    26    1
    22    26    27    1
    23    27    28    1
    24    28    29    1
    25    29    30    1
    26     6     7   ar
    27     7     8   ar
    28     8     9   ar
    29     9    10   ar
    30    16    12   ar
    31    10     1   ar
    32    22    17   ar
    33     9     4   ar
    34    29    25    1
@<TRIPOS>MOLECULE
*****
 30 34 0 0 0
SMALL
GASTEIGER

@<TRIPOS>ATOM
      1 C         142.6777  138.3524  159.9240 C.ar    1  UNL1        0.0884
      2 C         143.8699  139.1888  160.2832 C.ar    1  UNL1        0.0197
      3 C         144.2137  139.4252  161.7240 C.ar    1  UNL1        0.0030
      4 C         143.3652  138.8251  162.8056 C.ar    1  UNL1        0.0174
      5 C         143.7091  139.0614  164.2465 C.ar    1  UNL1       -0.0027
      6 C         142.8606  138.4613  165.3282 C.ar    1  UNL1       -0.0207
      7 C         141.6683  137.6249  164.9690 C.ar    1  UNL1       -0.0027
      8 C         141.3246  137.3886  163.5282 C.ar    1  UNL1        0.0188
      9 C         142.1730  137.9887  162.4465 C.ar    1  UNL1        0.0812
     10 N         141.8293  137.7524  161.0057 N.ar    1  UNL1       -0.2448
     11 C         141.4755  140.5672  157.8505 C.3     1  UNL1        0.0527
     12 C         141.7813  139.1341  157.5302 C.ar    1  UNL1        0.0674
     13 N         141.5882  138.4674  156.2004 N.ar    1  UNL1       -0.2411
     14 C         142.0215  137.0373  156.3316 C.ar    1  UNL1        0.1280
     15 S         142.4823  136.8202  157.7425 S.2     1  UNL1       -0.0638
     16 C         142.3339  138.1161  158.4832 C.ar    1  UNL1        0.0620
     17 C         141.9980  136.0055  155.2431 C.ar    1  UNL1        0.1050
     18 C         141.8287  136.4271  153.8136 C.ar    1  UNL1        0.0212
     19 C         141.8052  135.3953  152.7251 C.ar    1  UNL1        0.0032
     20 C         141.9510  133.9419  153.0661 C.ar    1  UNL1        0.0207
     21 C         142.1204  133.5203  154.4957 C.ar    1  UNL1        0.0989
     22 N         142.1438  134.5521  155.5842 N.ar    1  UNL1       -0.2418
     23 C         143.2044  138.6976  166.7690 C.3     1  UNL1        0.0437
     24 C         142.4965  139.7701  167.5428 C.3     1  UNL1        0.0768
     25 N         141.6856  140.8050  166.8207 N.3     1  UNL1       -0.2737
     26 C         142.2183  142.0498  166.1750 C.3     1  UNL1        0.0721
     27 C         141.0616  142.7909  165.5727 C.3     1  UNL1        0.0187
     28 C         139.8141  142.0041  165.8461 C.3     1  UNL1        0.0174
     29 C         140.1998  140.7768  166.6173 C.3     1  UNL1        0.0576
     30 C         139.2639  139.7088  167.1005 C.3     1  UNL1        0.0173
@<TRIPOS>BOND
     1    11    12    1
     2    12    13   ar
     3    13    14   ar
     4    14    17    1
     5    17    18   ar
     6    18    19   ar
     7    19    20   ar
     8    20    21   ar
     9    21    22   ar
    10    14    15   ar
    11    15    16   ar
    12    16     1    1
    13     1     2   ar
    14     2     3   ar
    15     3     4   ar
    16     4     5   ar
    17     5     6   ar
    18     6    23    1
    19    23    24    1
    20    24    25    1
    21    25    26    1
    22    26    27    1
    23    27    28    1
    24    28    29    1
    25    29    30    1
    26     6     7   ar
    27     7     8   ar
    28     8     9   ar
    29     9    10   ar
    30    16    12   ar
    31    10     1   ar
    32    22    17   ar
    33     9     4   ar
    34    29    25    1
@<TRIPOS>MOLECULE
*****
 30 34 0 0 0
SMALL
GASTEIGER

@<TRIPOS>ATOM
      1 C         139.0626  139.5163  161.3929 C.ar    1  UNL1        0.0884
      2 C         138.7974  138.1486  161.9488 C.ar    1  UNL1        0.0197
      3 C         138.8249  137.9234  163.4315 C.ar    1  UNL1        0.0030
      4 C         139.1176  139.0659  164.3583 C.ar    1  UNL1        0.0174
      5 C         139.1451  138.8407  165.8411 C.ar    1  UNL1       -0.0027
      6 C         139.4379  139.9832  166.7679 C.ar    1  UNL1       -0.0207
      7 C         139.7031  141.3509  166.2119 C.ar    1  UNL1       -0.0027
      8 C         139.6756  141.5761  164.7292 C.ar    1  UNL1        0.0188
      9 C         139.3829  140.4336  163.8024 C.ar    1  UNL1        0.0812
     10 N         139.3554  140.6588  162.3197 N.ar    1  UNL1       -0.2448
     11 C         141.3525  138.5749  159.2668 C.3     1  UNL1        0.0527
     12 C         140.0877  139.3088  158.9329 C.ar    1  UNL1        0.0674
     13 N         139.6533  139.7389  157.5631 N.ar    1  UNL1       -0.2411
     14 C         138.3323  140.4374  157.6937 C.ar    1  UNL1        0.1280
     15 S         137.9503  140.4390  159.1442 S.2     1  UNL1       -0.0638
     16 C         139.0351  139.7415  159.9101 C.ar    1  UNL1        0.0620
     17 C         137.5336  141.0302  156.5709 C.ar    1  UNL1        0.1050
     18 C         138.0801  142.1902  155.7926 C.ar    1  UNL1        0.0212
     19 C         137.2814  142.7830  154.6698 C.ar    1  UNL1        0.0032
     20 C         135.9362  142.2158  154.3254 C.ar    1  UNL1        0.0207
     21 C         135.3896  141.0558  155.1037 C.ar    1  UNL1        0.0989
     22 N         136.1883  140.4630  156.2265 N.ar    1  UNL1       -0.2418
     23 C         139.4654  139.7580  168.2506 C.3     1  UNL1        0.0437
     24 C         139.6447  140.9197  169.1825 C.3     1  UNL1        0.0768
     25 N         141.0218  141.4277  169.4915 N.3     1  UNL1       -0.2737
     26 C         142.2794  140.6103  169.5106 C.3     1  UNL1        0.0721
     27 C         143.4179  141.5197  169.8666 C.3     1  UNL1        0.0187
     28 C         142.8639  142.8992  170.0675 C.3     1  UNL1        0.0174
     29 C         141.3831  142.8423  169.8357 C.3     1  UNL1        0.0576
     30 C         140.4307  143.9972  169.9313 C.3     1  UNL1        0.0173
@<TRIPOS>BOND
     1    11    12    1
     2    12    13   ar
     3    13    14   ar
     4    14    17    1
     5    17    18   ar
     6    18    19   ar
     7    19    20   ar
     8    20    21   ar
     9    21    22   ar
    10    14    15   ar
    11    15    16   ar
    12    16     1    1
    13     1     2   ar
    14     2     3   ar
    15     3     4   ar
    16     4     5   ar
    17     5     6   ar
    18     6    23    1
    19    23    24    1
    20    24    25    1
    21    25    26    1
    22    26    27    1
    23    27    28    1
    24    28    29    1
    25    29    30    1
    26     6     7   ar
    27     7     8   ar
    28     8     9   ar
    29     9    10   ar
    30    16    12   ar
    31    10     1   ar
    32    22    17   ar
    33     9     4   ar
    34    29    25    1
@<TRIPOS>MOLECULE
*****
 30 34 0 0 0
SMALL
GASTEIGER

@<TRIPOS>ATOM
      1 C         140.1664  143.8068  160.1294 C.ar    1  UNL1        0.0884
      2 C         141.2030  142.7545  160.3904 C.ar    1  UNL1        0.0197
      3 C         141.5154  142.3426  161.7985 C.ar    1  UNL1        0.0030
      4 C         140.7912  142.9828  162.9455 C.ar    1  UNL1        0.0174
      5 C         141.1037  142.5708  164.3536 C.ar    1  UNL1       -0.0027
      6 C         140.3794  143.2110  165.5006 C.ar    1  UNL1       -0.0207
      7 C         139.3428  144.2633  165.2394 C.ar    1  UNL1       -0.0027
      8 C         139.0304  144.6753  163.8314 C.ar    1  UNL1        0.0188
      9 C         139.7546  144.0350  162.6844 C.ar    1  UNL1        0.0812
     10 N         139.4422  144.4470  161.2764 N.ar    1  UNL1       -0.2448
     11 C         138.7187  141.9553  157.8653 C.3     1  UNL1        0.0527
     12 C         139.1886  143.3678  157.6806 C.ar    1  UNL1        0.0674
     13 N         139.0754  144.1772  156.4229 N.ar    1  UNL1       -0.2411
     14 C         139.6710  145.5286  156.6862 C.ar    1  UNL1        0.1280
     15 S         140.1521  145.5542  158.1066 S.2     1  UNL1       -0.0638
     16 C         139.8540  144.2188  158.7213 C.ar    1  UNL1        0.0620
     17 C         139.7682  146.6562  155.7018 C.ar    1  UNL1        0.1050
     18 C         140.5430  146.4768  154.4299 C.ar    1  UNL1        0.0212
     19 C         140.6402  147.6044  153.4456 C.ar    1  UNL1        0.0032
     20 C         139.9628  148.9114  153.7331 C.ar    1  UNL1        0.0207
     21 C         139.1881  149.0909  155.0050 C.ar    1  UNL1        0.0989
     22 N         139.0908  147.9632  155.9893 N.ar    1  UNL1       -0.2418
     23 C         140.6918  142.7990  166.9086 C.3     1  UNL1        0.0437
     24 C         141.9207  141.9888  167.1979 C.3     1  UNL1        0.0768
     25 N         141.9912  141.1507  168.4399 N.3     1  UNL1       -0.2737
     26 C         141.1485  139.9466  168.7400 C.3     1  UNL1        0.0721
     27 C         141.5533  139.4212  170.0854 C.3     1  UNL1        0.0187
     28 C         142.6461  140.3006  170.6168 C.3     1  UNL1        0.0174
     29 C         142.9168  141.3695  169.5998 C.3     1  UNL1        0.0576
     30 C         143.9343  142.4648  169.7214 C.3     1  UNL1        0.0173
@<TRIPOS>BOND
     1    11    12    1
     2    12    13   ar
     3    13    14   ar
     4    14    17    1
     5    17    18   ar
     6    18    19   ar
     7    19    20   ar
     8    20    21   ar
     9    21    22   ar
    10    14    15   ar
    11    15    16   ar
    12    16     1    1
    13     1     2   ar
    14     2     3   ar
    15     3     4   ar
    16     4     5   ar
    17     5     6   ar
    18     6    23    1
    19    23    24    1
    20    24    25    1
    21    25    26    1
    22    26    27    1
    23    27    28    1
    24    28    29    1
    25    29    30    1
    26     6     7   ar
    27     7     8   ar
    28     8     9   ar
    29     9    10   ar
    30    16    12   ar
    31    10     1   ar
    32    22    17   ar
    33     9     4   ar
    34    29    25    1
@<TRIPOS>MOLECULE
*****
 30 34 0 0 0
SMALL
GASTEIGER

@<TRIPOS>ATOM
      1 C         140.3783  144.2215  159.9595 C.ar    1  UNL1        0.0884
      2 C         141.7792  144.0903  160.4792 C.ar    1  UNL1        0.0197
      3 C         142.0164  143.8086  161.9333 C.ar    1  UNL1        0.0030
      4 C         140.8526  143.6579  162.8676 C.ar    1  UNL1        0.0174
      5 C         141.0898  143.3761  164.3217 C.ar    1  UNL1       -0.0027
      6 C         139.9261  143.2255  165.2560 C.ar    1  UNL1       -0.0207
      7 C         138.5251  143.3566  164.7362 C.ar    1  UNL1       -0.0027
      8 C         138.2879  143.6384  163.2822 C.ar    1  UNL1        0.0188
      9 C         139.4517  143.7890  162.3479 C.ar    1  UNL1        0.0812
     10 N         139.2145  144.0708  160.8938 N.ar    1  UNL1       -0.2448
     11 C         139.2921  142.0857  157.7439 C.3     1  UNL1        0.0527
     12 C         139.6418  143.5216  157.4870 C.ar    1  UNL1        0.0674
     13 N         139.5537  144.2278  156.1667 N.ar    1  UNL1       -0.2411
     14 C         139.9985  145.6461  156.3689 C.ar    1  UNL1        0.1280
     15 S         140.3615  145.8162  157.8143 S.2     1  UNL1       -0.0638
     16 C         140.1411  144.5032  158.5054 C.ar    1  UNL1        0.0620
     17 C         140.0680  146.7076  155.3115 C.ar    1  UNL1        0.1050
     18 C         139.3454  148.0078  155.5053 C.ar    1  UNL1        0.0212
     19 C         139.4150  149.0693  154.4478 C.ar    1  UNL1        0.0032
     20 C         140.2071  148.8307  153.1966 C.ar    1  UNL1        0.0207
     21 C         140.9296  147.5306  153.0028 C.ar    1  UNL1        0.0989
     22 N         140.8601  146.4690  154.0602 N.ar    1  UNL1       -0.2418
     23 C         140.1632  142.9437  166.7101 C.3     1  UNL1        0.0437
     24 C         140.2859  141.5276  167.1894 C.3     1  UNL1        0.0768
     25 N         139.9429  140.3925  166.2708 N.3     1  UNL1       -0.2737
     26 C         138.5819  139.7905  166.0831 C.3     1  UNL1        0.0721
     27 C         138.6985  138.6861  165.0748 C.3     1  UNL1        0.0187
     28 C         140.1317  138.6055  164.6394 C.3     1  UNL1        0.0174
     29 C         140.9007  139.6601  165.3785 C.3     1  UNL1        0.0576
     30 C         142.3697  139.9342  165.2482 C.3     1  UNL1        0.0173
@<TRIPOS>BOND
     1    11    12    1
     2    12    13   ar
     3    13    14   ar
     4    14    17    1
     5    17    18   ar
     6    18    19   ar
     7    19    20   ar
     8    20    21   ar
     9    21    22   ar
    10    14    15   ar
    11    15    16   ar
    12    16     1    1
    13     1     2   ar
    14     2     3   ar
    15     3     4   ar
    16     4     5   ar
    17     5     6   ar
    18     6    23    1
    19    23    24    1
    20    24    25    1
    21    25    26    1
    22    26    27    1
    23    27    28    1
    24    28    29    1
    25    29    30    1
    26     6     7   ar
    27     7     8   ar
    28     8     9   ar
    29     9    10   ar
    30    16    12   ar
    31    10     1   ar
    32    22    17   ar
    33     9     4   ar
    34    29    25    1
@<TRIPOS>MOLECULE
*****
 30 34 0 0 0
SMALL
GASTEIGER

@<TRIPOS>ATOM
      1 C         142.1562  139.2371  162.0321 C.ar    1  UNL1        0.0884
      2 C         143.2630  139.4188  163.0280 C.ar    1  UNL1        0.0197
      3 C         142.9401  139.6392  164.4762 C.ar    1  UNL1        0.0030
      4 C         141.5104  139.6779  164.9284 C.ar    1  UNL1        0.0174
      5 C         141.1876  139.8983  166.3766 C.ar    1  UNL1       -0.0027
      6 C         139.7579  139.9370  166.8288 C.ar    1  UNL1       -0.0207
      7 C         138.6511  139.7552  165.8328 C.ar    1  UNL1       -0.0027
      8 C         138.9739  139.5348  164.3847 C.ar    1  UNL1        0.0188
      9 C         140.4036  139.4961  163.9325 C.ar    1  UNL1        0.0812
     10 N         140.7265  139.2757  162.4843 N.ar    1  UNL1       -0.2448
     11 C         144.1046  141.1027  160.1956 C.3     1  UNL1        0.0527
     12 C         143.3746  139.8742  159.7398 C.ar    1  UNL1        0.0674
     13 N         143.4120  139.2875  158.3598 N.ar    1  UNL1       -0.2411
     14 C         142.5395  138.0673  158.3510 C.ar    1  UNL1        0.1280
     15 S         141.9629  137.8999  159.7256 S.2     1  UNL1       -0.0638
     16 C         142.4790  139.0166  160.5839 C.ar    1  UNL1        0.0620
     17 C         142.2879  137.1718  157.1743 C.ar    1  UNL1        0.1050
     18 C         143.4133  136.3748  156.5841 C.ar    1  UNL1        0.0212
     19 C         143.1616  135.4793  155.4074 C.ar    1  UNL1        0.0032
     20 C         141.7846  135.3808  154.8208 C.ar    1  UNL1        0.0207
     21 C         140.6592  136.1778  155.4110 C.ar    1  UNL1        0.0989
     22 N         140.9108  137.0733  156.5877 N.ar    1  UNL1       -0.2418
     23 C         139.4350  140.1574  168.2769 C.3     1  UNL1        0.0437
     24 C         140.4895  139.9415  169.3218 C.3     1  UNL1        0.0768
     25 N         141.5054  141.0109  169.5943 N.3     1  UNL1       -0.2737
     26 C         142.9807  140.9102  169.3426 C.3     1  UNL1        0.0721
     27 C         143.6114  142.2059  169.7591 C.3     1  UNL1        0.0187
     28 C         142.5259  143.1073  170.2681 C.3     1  UNL1        0.0174
     29 C         141.2243  142.3688  170.1662 C.3     1  UNL1        0.0576
     30 C         139.8780  142.8957  170.5661 C.3     1  UNL1        0.0173
@<TRIPOS>BOND
     1    11    12    1
     2    12    13   ar
     3    13    14   ar
     4    14    17    1
     5    17    18   ar
     6    18    19   ar
     7    19    20   ar
     8    20    21   ar
     9    21    22   ar
    10    14    15   ar
    11    15    16   ar
    12    16     1    1
    13     1     2   ar
    14     2     3   ar
    15     3     4   ar
    16     4     5   ar
    17     5     6   ar
    18     6    23    1
    19    23    24    1
    20    24    25    1
    21    25    26    1
    22    26    27    1
    23    27    28    1
    24    28    29    1
    25    29    30    1
    26     6     7   ar
    27     7     8   ar
    28     8     9   ar
    29     9    10   ar
    30    16    12   ar
    31    10     1   ar
    32    22    17   ar
    33     9     4   ar
    34    29    25    1
