@<TRIPOS>MOLECULE
*****
 23 26 0 0 0
SMALL
GASTEIGER

@<TRIPOS>ATOM
      1 C         140.3950  139.7643  166.8495 C.ar    1  UNL1       -0.0144
      2 C         141.6762  139.2766  166.2408 C.ar    1  UNL1        0.0051
      3 S         142.7498  139.3694  167.2843 S.2     1  UNL1       -0.0915
      4 C         142.1321  139.9146  168.5378 C.ar    1  UNL1        0.0288
      5 C         142.7069  140.2202  169.8891 C.ar    1  UNL1        0.0065
      6 C         141.8262  140.7700  170.9718 C.ar    1  UNL1        0.0005
      7 C         140.3708  141.0140  170.7031 C.ar    1  UNL1        0.0000
      8 C         139.7960  140.7083  169.3517 C.ar    1  UNL1        0.0002
      9 C         140.6767  140.1586  168.2691 C.ar    1  UNL1        0.0025
     10 C         138.0436  138.7666  166.3741 C.3     1  UNL1        0.0110
     11 C         139.0653  139.8438  166.1597 C.3     1  UNL1        0.0627
     12 C         138.7573  141.0004  165.2557 C.ar    1  UNL1        0.0627
     13 C         139.4231  142.3257  165.4799 C.ar    1  UNL1        0.0151
     14 C         139.1152  143.4823  164.5758 C.ar    1  UNL1        0.0028
     15 C         138.1414  143.3136  163.4474 C.ar    1  UNL1        0.0207
     16 C         137.4756  141.9883  163.2231 C.ar    1  UNL1        0.0985
     17 N         137.7836  140.8317  164.1272 N.ar    1  UNL1       -0.2478
     18 C         141.8528  138.7827  164.8355 C.3     1  UNL1        0.0499
     19 C         141.0389  137.6244  164.3398 C.3     1  UNL1        0.0773
     20 N         140.1684  137.7833  163.1286 N.3     1  UNL1       -0.2723
     21 C         138.6952  137.6917  162.8618 C.3     1  UNL1        0.0735
     22 C         138.9373  138.0080  161.4157 C.3     1  UNL1        0.0346
     23 C         140.4106  138.0996  161.6824 C.3     1  UNL1        0.0735
@<TRIPOS>BOND
     1    11    10    1
     2    11    12    1
     3    12    13   ar
     4    13    14   ar
     5    14    15   ar
     6    15    16   ar
     7    16    17   ar
     8    11     1    1
     9     1     2   ar
    10     2    18    1
    11    18    19    1
    12    19    20    1
    13    20    21    1
    14    21    22    1
    15    22    23    1
    16     2     3   ar
    17     3     4   ar
    18     4     5   ar
    19     5     6   ar
    20     6     7   ar
    21     7     8   ar
    22     8     9   ar
    23    17    12   ar
    24     9     1   ar
    25    23    20    1
    26     9     4   ar
@<TRIPOS>MOLECULE
*****
 23 26 0 0 0
SMALL
GASTEIGER

@<TRIPOS>ATOM
      1 C         141.0938  143.0799  165.2272 C.ar    1  UNL1       -0.0144
      2 C         140.2166  144.1713  164.6894 C.ar    1  UNL1        0.0051
      3 S         140.9299  144.8136  163.5367 S.2     1  UNL1       -0.0915
      4 C         142.2479  144.1191  163.3621 C.ar    1  UNL1        0.0288
      5 C         143.3689  144.3240  162.3867 C.ar    1  UNL1        0.0065
      6 C         144.5912  143.4574  162.4561 C.ar    1  UNL1        0.0005
      7 C         144.6925  142.3858  163.5009 C.ar    1  UNL1        0.0000
      8 C         143.5715  142.1809  164.4763 C.ar    1  UNL1        0.0002
      9 C         142.3493  143.0476  164.4069 C.ar    1  UNL1        0.0025
     10 C         139.8476  141.0134  166.1898 C.3     1  UNL1        0.0110
     11 C         140.7721  142.1788  166.3824 C.3     1  UNL1        0.0627
     12 C         141.3749  142.4431  167.7303 C.ar    1  UNL1        0.0627
     13 C         140.5643  143.1220  168.7943 C.ar    1  UNL1        0.0151
     14 C         141.1671  143.3863  170.1422 C.ar    1  UNL1        0.0028
     15 C         142.5804  142.9717  170.4261 C.ar    1  UNL1        0.0207
     16 C         143.3910  142.2928  169.3621 C.ar    1  UNL1        0.0985
     17 N         142.7882  142.0285  168.0142 N.ar    1  UNL1       -0.2478
     18 C         138.8637  144.5534  165.2125 C.3     1  UNL1        0.0499
     19 C         137.6273  144.1178  164.4835 C.3     1  UNL1        0.0773
     20 N         137.7070  143.0271  163.4569 N.3     1  UNL1       -0.2723
     21 C         137.9955  142.9740  161.9859 C.3     1  UNL1        0.0735
     22 C         137.8197  141.4845  162.0051 C.3     1  UNL1        0.0346
     23 C         137.5311  141.5375  163.4761 C.3     1  UNL1        0.0735
@<TRIPOS>BOND
     1    11    10    1
     2    11    12    1
     3    12    13   ar
     4    13    14   ar
     5    14    15   ar
     6    15    16   ar
     7    16    17   ar
     8    11     1    1
     9     1     2   ar
    10     2    18    1
    11    18    19    1
    12    19    20    1
    13    20    21    1
    14    21    22    1
    15    22    23    1
    16     2     3   ar
    17     3     4   ar
    18     4     5   ar
    19     5     6   ar
    20     6     7   ar
    21     7     8   ar
    22     8     9   ar
    23    17    12   ar
    24     9     1   ar
    25    23    20    1
    26     9     4   ar
@<TRIPOS>MOLECULE
*****
 23 26 0 0 0
SMALL
GASTEIGER

@<TRIPOS>ATOM
      1 C         140.5799  140.9520  166.3897 C.ar    1  UNL1       -0.0144
      2 C         139.4917  140.0823  166.9460 C.ar    1  UNL1        0.0051
      3 S         139.7335  139.9217  168.4176 S.2     1  UNL1       -0.0915
      4 C         140.9712  140.6920  168.7708 C.ar    1  UNL1        0.0288
      5 C         141.6894  140.8958  170.0718 C.ar    1  UNL1        0.0065
      6 C         142.9308  141.7364  170.1194 C.ar    1  UNL1        0.0005
      7 C         143.4539  142.3732  168.8661 C.ar    1  UNL1        0.0000
      8 C         142.7357  142.1694  167.5651 C.ar    1  UNL1        0.0002
      9 C         141.4943  141.3287  167.5175 C.ar    1  UNL1        0.0025
     10 C         141.8621  140.8381  164.1329 C.3     1  UNL1        0.0110
     11 C         140.7278  141.3713  164.9571 C.3     1  UNL1        0.0627
     12 C         139.7416  142.3236  164.3487 C.ar    1  UNL1        0.0627
     13 C         139.6749  143.7430  164.8295 C.ar    1  UNL1        0.0151
     14 C         138.6886  144.6954  164.2211 C.ar    1  UNL1        0.0028
     15 C         137.7691  144.2285  163.1318 C.ar    1  UNL1        0.0207
     16 C         137.8358  142.8092  162.6510 C.ar    1  UNL1        0.0985
     17 N         138.8221  141.8568  163.2594 N.ar    1  UNL1       -0.2478
     18 C         138.3603  139.4793  166.1674 C.3     1  UNL1        0.0499
     19 C         138.4759  138.0807  165.6377 C.3     1  UNL1        0.0773
     20 N         139.5082  137.7549  164.5994 N.3     1  UNL1       -0.2723
     21 C         140.9260  137.2662  164.6301 C.3     1  UNL1        0.0735
     22 C         140.9681  137.2941  163.1310 C.3     1  UNL1        0.0346
     23 C         139.5503  137.7828  163.1002 C.3     1  UNL1        0.0735
@<TRIPOS>BOND
     1    11    10    1
     2    11    12    1
     3    12    13   ar
     4    13    14   ar
     5    14    15   ar
     6    15    16   ar
     7    16    17   ar
     8    11     1    1
     9     1     2   ar
    10     2    18    1
    11    18    19    1
    12    19    20    1
    13    20    21    1
    14    21    22    1
    15    22    23    1
    16     2     3   ar
    17     3     4   ar
    18     4     5   ar
    19     5     6   ar
    20     6     7   ar
    21     7     8   ar
    22     8     9   ar
    23    17    12   ar
    24     9     1   ar
    25    23    20    1
    26     9     4   ar
@<TRIPOS>MOLECULE
*****
 23 26 0 0 0
SMALL
GASTEIGER

@<TRIPOS>ATOM
      1 C         138.7393  139.8848  164.6861 C.ar    1  UNL1       -0.0144
      2 C         138.9399  139.0413  163.4621 C.ar    1  UNL1        0.0051
      3 S         138.7355  139.9139  162.2593 S.2     1  UNL1       -0.0915
      4 C         138.4086  141.2967  162.7399 C.ar    1  UNL1        0.0288
      5 C         138.1091  142.5699  162.0055 C.ar    1  UNL1        0.0065
      6 C         137.8119  143.8251  162.7710 C.ar    1  UNL1        0.0005
      7 C         137.8143  143.8071  164.2709 C.ar    1  UNL1        0.0000
      8 C         138.1138  142.5340  165.0053 C.ar    1  UNL1        0.0002
      9 C         138.4109  141.2788  164.2397 C.ar    1  UNL1        0.0025
     10 C         137.7156  138.6604  166.7362 C.3     1  UNL1        0.0110
     11 C         138.8480  139.4167  166.1070 C.3     1  UNL1        0.0627
     12 C         140.0889  139.7048  166.8988 C.ar    1  UNL1        0.0627
     13 C         141.3877  139.9574  166.1922 C.ar    1  UNL1        0.0151
     14 C         142.6287  140.2455  166.9839 C.ar    1  UNL1        0.0028
     15 C         142.5709  140.2810  168.4824 C.ar    1  UNL1        0.0207
     16 C         141.2721  140.0285  169.1891 C.ar    1  UNL1        0.0985
     17 N         140.0311  139.7404  168.3973 N.ar    1  UNL1       -0.2478
     18 C         139.2844  137.5815  163.4441 C.3     1  UNL1        0.0499
     19 C         140.6988  137.1417  163.6807 C.3     1  UNL1        0.0773
     20 N         141.8146  137.7391  162.8756 N.3     1  UNL1       -0.2723
     21 C         142.1434  137.8190  161.4143 C.3     1  UNL1        0.0735
     22 C         143.3926  138.5839  161.7370 C.3     1  UNL1        0.0346
     23 C         143.0639  138.5040  163.1984 C.3     1  UNL1        0.0735
@<TRIPOS>BOND
     1    11    10    1
     2    11    12    1
     3    12    13   ar
     4    13    14   ar
     5    14    15   ar
     6    15    16   ar
     7    16    17   ar
     8    11     1    1
     9     1     2   ar
    10     2    18    1
    11    18    19    1
    12    19    20    1
    13    20    21    1
    14    21    22    1
    15    22    23    1
    16     2     3   ar
    17     3     4   ar
    18     4     5   ar
    19     5     6   ar
    20     6     7   ar
    21     7     8   ar
    22     8     9   ar
    23    17    12   ar
    24     9     1   ar
    25    23    20    1
    26     9     4   ar
@<TRIPOS>MOLECULE
*****
 23 26 0 0 0
SMALL
GASTEIGER

@<TRIPOS>ATOM
      1 C         140.9487  142.8962  165.3112 C.ar    1  UNL1       -0.0144
      2 C         140.1676  144.0543  164.7647 C.ar    1  UNL1        0.0051
      3 S         141.0365  144.7744  163.7765 S.2     1  UNL1       -0.0915
      4 C         142.3546  144.0613  163.7123 C.ar    1  UNL1        0.0288
      5 C         143.5973  144.3191  162.9128 C.ar    1  UNL1        0.0065
      6 C         144.7857  143.4161  163.0617 C.ar    1  UNL1        0.0005
      7 C         144.7314  142.2553  164.0102 C.ar    1  UNL1        0.0000
      8 C         143.4888  141.9976  164.8098 C.ar    1  UNL1        0.0002
      9 C         142.3004  142.9006  164.6609 C.ar    1  UNL1        0.0025
     10 C         140.5250  142.2434  167.7901 C.3     1  UNL1        0.0110
     11 C         140.4634  141.9074  166.3294 C.3     1  UNL1        0.0627
     12 C         139.9166  140.5826  165.8871 C.ar    1  UNL1        0.0627
     13 C         138.8479  139.9054  166.6931 C.ar    1  UNL1        0.0151
     14 C         138.3010  138.5806  166.2508 C.ar    1  UNL1        0.0028
     15 C         138.8228  137.9328  165.0025 C.ar    1  UNL1        0.0207
     16 C         139.8914  138.6099  164.1966 C.ar    1  UNL1        0.0985
     17 N         140.4383  139.9348  164.6388 N.ar    1  UNL1       -0.2478
     18 C         138.7640  144.4268  165.1404 C.3     1  UNL1        0.0499
     19 C         137.6341  144.1423  164.1957 C.3     1  UNL1        0.0773
     20 N         137.7093  142.9647  163.2696 N.3     1  UNL1       -0.2723
     21 C         137.4117  141.4995  163.3905 C.3     1  UNL1        0.0735
     22 C         137.8156  141.2994  161.9599 C.3     1  UNL1        0.0346
     23 C         138.1132  142.7646  161.8389 C.3     1  UNL1        0.0735
@<TRIPOS>BOND
     1    11    10    1
     2    11    12    1
     3    12    13   ar
     4    13    14   ar
     5    14    15   ar
     6    15    16   ar
     7    16    17   ar
     8    11     1    1
     9     1     2   ar
    10     2    18    1
    11    18    19    1
    12    19    20    1
    13    20    21    1
    14    21    22    1
    15    22    23    1
    16     2     3   ar
    17     3     4   ar
    18     4     5   ar
    19     5     6   ar
    20     6     7   ar
    21     7     8   ar
    22     8     9   ar
    23    17    12   ar
    24     9     1   ar
    25    23    20    1
    26     9     4   ar
@<TRIPOS>MOLECULE
*****
 23 26 0 0 0
SMALL
GASTEIGER

@<TRIPOS>ATOM
      1 C         140.3232  139.7880  166.7068 C.ar    1  UNL1       -0.0144
      2 C         141.6442  139.5547  166.0355 C.ar    1  UNL1        0.0051
      3 S         142.7202  139.6825  167.0727 S.2     1  UNL1       -0.0915
      4 C         142.0643  139.9948  168.3850 C.ar    1  UNL1        0.0288
      5 C         142.6246  140.2283  169.7567 C.ar    1  UNL1        0.0065
      6 C         141.7034  140.5269  170.9022 C.ar    1  UNL1        0.0005
      7 C         140.2220  140.5921  170.6761 C.ar    1  UNL1        0.0000
      8 C         139.6617  140.3587  169.3044 C.ar    1  UNL1        0.0002
      9 C         140.5829  140.0600  168.1589 C.ar    1  UNL1        0.0025
     10 C         138.0235  138.6368  166.3379 C.3     1  UNL1        0.0110
     11 C         138.9787  139.7551  166.0426 C.3     1  UNL1        0.0627
     12 C         138.5893  140.8404  165.0833 C.ar    1  UNL1        0.0627
     13 C         139.0390  142.2511  165.3239 C.ar    1  UNL1        0.0151
     14 C         138.6496  143.3364  164.3645 C.ar    1  UNL1        0.0028
     15 C         137.8104  143.0111  163.1645 C.ar    1  UNL1        0.0207
     16 C         137.3606  141.6005  162.9240 C.ar    1  UNL1        0.0985
     17 N         137.7501  140.5152  163.8833 N.ar    1  UNL1       -0.2478
     18 C         141.8525  139.2475  164.5821 C.3     1  UNL1        0.0499
     19 C         142.2116  140.3470  163.6271 C.3     1  UNL1        0.0773
     20 N         143.6148  140.8755  163.5852 N.3     1  UNL1       -0.2723
     21 C         144.8190  140.6209  162.7279 C.3     1  UNL1        0.0735
     22 C         145.5992  141.6229  163.5260 C.3     1  UNL1        0.0346
     23 C         144.3951  141.8776  164.3834 C.3     1  UNL1        0.0735
@<TRIPOS>BOND
     1    11    10    1
     2    11    12    1
     3    12    13   ar
     4    13    14   ar
     5    14    15   ar
     6    15    16   ar
     7    16    17   ar
     8    11     1    1
     9     1     2   ar
    10     2    18    1
    11    18    19    1
    12    19    20    1
    13    20    21    1
    14    21    22    1
    15    22    23    1
    16     2     3   ar
    17     3     4   ar
    18     4     5   ar
    19     5     6   ar
    20     6     7   ar
    21     7     8   ar
    22     8     9   ar
    23    17    12   ar
    24     9     1   ar
    25    23    20    1
    26     9     4   ar
@<TRIPOS>MOLECULE
*****
 23 26 0 0 0
SMALL
GASTEIGER

@<TRIPOS>ATOM
      1 C         141.3757  141.2579  165.7539 C.ar    1  UNL1       -0.0144
      2 C         140.9721  139.8221  165.9146 C.ar    1  UNL1        0.0051
      3 S         142.1072  138.9655  165.4373 S.2     1  UNL1       -0.0915
      4 C         143.2122  139.8717  164.9817 C.ar    1  UNL1        0.0288
      5 C         144.5717  139.5899  164.4139 C.ar    1  UNL1        0.0065
      6 C         145.4790  140.7249  164.0418 C.ar    1  UNL1        0.0005
      7 C         145.0269  142.1417  164.2375 C.ar    1  UNL1        0.0000
      8 C         143.6675  142.4235  164.8053 C.ar    1  UNL1        0.0002
      9 C         142.7601  141.2885  165.1774 C.ar    1  UNL1        0.0025
     10 C         140.4122  142.8803  167.5399 C.3     1  UNL1        0.0110
     11 C         140.5413  142.4531  166.1077 C.3     1  UNL1        0.0627
     12 C         139.8361  143.2212  165.0296 C.ar    1  UNL1        0.0627
     13 C         138.4227  142.8758  164.6645 C.ar    1  UNL1        0.0151
     14 C         137.7174  143.6439  163.5863 C.ar    1  UNL1        0.0028
     15 C         138.4254  144.7575  162.8731 C.ar    1  UNL1        0.0207
     16 C         139.8387  145.1029  163.2381 C.ar    1  UNL1        0.0985
     17 N         140.5441  144.3348  164.3163 N.ar    1  UNL1       -0.2478
     18 C         139.6634  139.3296  166.4572 C.3     1  UNL1        0.0499
     19 C         138.4390  139.3444  165.5909 C.3     1  UNL1        0.0773
     20 N         138.5319  138.9245  164.1538 N.3     1  UNL1       -0.2723
     21 C         138.2126  139.5692  162.8376 C.3     1  UNL1        0.0735
     22 C         138.6634  138.3308  162.1216 C.3     1  UNL1        0.0346
     23 C         138.9828  137.6859  163.4377 C.3     1  UNL1        0.0735
@<TRIPOS>BOND
     1    11    10    1
     2    11    12    1
     3    12    13   ar
     4    13    14   ar
     5    14    15   ar
     6    15    16   ar
     7    16    17   ar
     8    11     1    1
     9     1     2   ar
    10     2    18    1
    11    18    19    1
    12    19    20    1
    13    20    21    1
    14    21    22    1
    15    22    23    1
    16     2     3   ar
    17     3     4   ar
    18     4     5   ar
    19     5     6   ar
    20     6     7   ar
    21     7     8   ar
    22     8     9   ar
    23    17    12   ar
    24     9     1   ar
    25    23    20    1
    26     9     4   ar
@<TRIPOS>MOLECULE
*****
 23 26 0 0 0
SMALL
GASTEIGER

@<TRIPOS>ATOM
      1 C         140.5487  140.5968  165.5960 C.ar    1  UNL1       -0.0144
      2 C         139.6980  139.4719  165.0853 C.ar    1  UNL1        0.0051
      3 S         138.4362  140.0612  164.5280 S.2     1  UNL1       -0.0915
      4 C         138.5070  141.5502  164.6943 C.ar    1  UNL1        0.0288
      5 C         137.5514  142.6475  164.3299 C.ar    1  UNL1        0.0065
      6 C         137.9014  144.0757  164.6257 C.ar    1  UNL1        0.0005
      7 C         139.2070  144.4068  165.2858 C.ar    1  UNL1        0.0000
      8 C         140.1627  143.3095  165.6502 C.ar    1  UNL1        0.0002
      9 C         139.8127  141.8813  165.3544 C.ar    1  UNL1        0.0025
     10 C         142.0117  139.9850  167.6541 C.3     1  UNL1        0.0110
     11 C         141.8985  140.4610  166.2361 C.3     1  UNL1        0.0627
     12 C         143.1350  140.8013  165.4582 C.ar    1  UNL1        0.0627
     13 C         143.6118  142.2220  165.3913 C.ar    1  UNL1        0.0151
     14 C         144.8484  142.5623  164.6134 C.ar    1  UNL1        0.0028
     15 C         145.6083  141.4819  163.9025 C.ar    1  UNL1        0.0207
     16 C         145.1315  140.0613  163.9695 C.ar    1  UNL1        0.0985
     17 N         143.8950  139.7209  164.7473 N.ar    1  UNL1       -0.2478
     18 C         140.0477  138.0137  165.1249 C.3     1  UNL1        0.0499
     19 C         141.1238  137.4759  164.2290 C.3     1  UNL1        0.0773
     20 N         141.1526  137.8578  162.7787 N.3     1  UNL1       -0.2723
     21 C         140.1201  138.0116  161.7016 C.3     1  UNL1        0.0735
     22 C         141.1934  138.3978  160.7277 C.3     1  UNL1        0.0346
     23 C         142.2261  138.2441  161.8047 C.3     1  UNL1        0.0735
@<TRIPOS>BOND
     1    11    10    1
     2    11    12    1
     3    12    13   ar
     4    13    14   ar
     5    14    15   ar
     6    15    16   ar
     7    16    17   ar
     8    11     1    1
     9     1     2   ar
    10     2    18    1
    11    18    19    1
    12    19    20    1
    13    20    21    1
    14    21    22    1
    15    22    23    1
    16     2     3   ar
    17     3     4   ar
    18     4     5   ar
    19     5     6   ar
    20     6     7   ar
    21     7     8   ar
    22     8     9   ar
    23    17    12   ar
    24     9     1   ar
    25    23    20    1
    26     9     4   ar
@<TRIPOS>MOLECULE
*****
 23 26 0 0 0
SMALL
GASTEIGER

@<TRIPOS>ATOM
      1 C         139.6927  141.5936  164.9780 C.ar    1  UNL1       -0.0144
      2 C         138.4981  142.1500  164.2615 C.ar    1  UNL1        0.0051
      3 S         137.8827  141.0431  163.4577 S.2     1  UNL1       -0.0915
      4 C         138.6968  139.8026  163.6774 C.ar    1  UNL1        0.0288
      5 C         138.5641  138.4073  163.1434 C.ar    1  UNL1        0.0065
      6 C         139.5500  137.3521  163.5489 C.ar    1  UNL1        0.0005
      7 C         140.6687  137.6923  164.4885 C.ar    1  UNL1        0.0000
      8 C         140.8014  139.0877  165.0226 C.ar    1  UNL1        0.0002
      9 C         139.8155  140.1428  164.6171 C.ar    1  UNL1        0.0025
     10 C         140.3423  142.3678  167.3715 C.3     1  UNL1        0.0110
     11 C         140.6044  142.3543  165.8945 C.3     1  UNL1        0.0627
     12 C         141.7780  143.1016  165.3343 C.ar    1  UNL1        0.0627
     13 C         141.5575  144.2400  164.3827 C.ar    1  UNL1        0.0151
     14 C         142.7312  144.9874  163.8224 C.ar    1  UNL1        0.0028
     15 C         144.1255  144.5963  164.2138 C.ar    1  UNL1        0.0207
     16 C         144.3460  143.4580  165.1653 C.ar    1  UNL1        0.0985
     17 N         143.1723  142.7106  165.7256 N.ar    1  UNL1       -0.2478
     18 C         138.0055  143.5649  164.3357 C.3     1  UNL1        0.0499
     19 C         137.7058  144.3218  163.0758 C.3     1  UNL1        0.0773
     20 N         138.8246  144.7434  162.1701 N.3     1  UNL1       -0.2723
     21 C         139.6920  144.0497  161.1619 C.3     1  UNL1        0.0735
     22 C         140.4069  145.3397  160.8891 C.3     1  UNL1        0.0346
     23 C         139.5395  146.0336  161.8972 C.3     1  UNL1        0.0735
@<TRIPOS>BOND
     1    11    10    1
     2    11    12    1
     3    12    13   ar
     4    13    14   ar
     5    14    15   ar
     6    15    16   ar
     7    16    17   ar
     8    11     1    1
     9     1     2   ar
    10     2    18    1
    11    18    19    1
    12    19    20    1
    13    20    21    1
    14    21    22    1
    15    22    23    1
    16     2     3   ar
    17     3     4   ar
    18     4     5   ar
    19     5     6   ar
    20     6     7   ar
    21     7     8   ar
    22     8     9   ar
    23    17    12   ar
    24     9     1   ar
    25    23    20    1
    26     9     4   ar
