@<TRIPOS>MOLECULE
*****
 29 31 0 0 0
SMALL
GASTEIGER

@<TRIPOS>ATOM
      1 C         141.1381  140.3289  166.2688 C.ar    1  UNL1        0.0252
      2 C         139.9332  141.0371  165.7240 C.ar    1  UNL1       -0.0009
      3 C         139.0750  140.3704  164.6902 C.ar    1  UNL1        0.0210
      4 C         139.4216  138.9954  164.2011 C.ar    1  UNL1        0.1397
      5 F         138.5633  138.3285  163.1672 F       1  UNL1       -0.2044
      6 C         140.6264  138.2871  164.7458 C.ar    1  UNL1        0.0587
      7 C         141.4847  138.9539  165.7797 C.ar    1  UNL1        0.1401
      8 F         142.6896  138.2457  166.3244 F       1  UNL1       -0.2044
      9 C         144.2977  142.7895  169.9926 C.3     1  UNL1        0.0122
     10 C         143.2348  141.9180  169.3920 C.3     1  UNL1        0.0568
     11 C         143.0592  141.8673  167.9032 C.3     1  UNL1        0.0380
     12 C         141.9963  140.9958  167.3026 C.3     1  UNL1        0.1080
     13 C         142.5855  141.5850  166.0553 C.3     1  UNL1        0.0291
     14 N         141.1090  140.1749  168.1908 N.2     1  UNL1       -0.2509
     15 C         141.2846  140.2256  169.6795 C.2     1  UNL1        0.1481
     16 N         140.3973  139.4048  170.5678 N.pl3   1  UNL1       -0.3380
     17 S         142.3475  141.0972  170.2801 S.3     1  UNL1       -0.0816
     18 H         139.6997  138.8327  170.1737 H       1  UNL1        0.1442
     19 H         140.5126  139.4381  171.5450 H       1  UNL1        0.1442
     20 C         137.8701  141.0786  164.1454 C.3     1  UNL1        0.0980
     21 N         137.5314  142.4591  164.6243 N.3     1  UNL1       -0.2892
     22 H         137.8530  142.5229  165.5902 H       1  UNL1        0.1237
     23 C         138.0778  143.6573  163.9060 C.3     1  UNL1        0.1307
     24 C         138.5146  144.5484  162.7813 C.3     1  UNL1        0.0245
     25 C         137.9520  143.1895  162.4864 C.3     1  UNL1        0.0245
     26 C         138.3933  144.5411  165.0762 C.3     1  UNL1        0.4088
     27 F         138.7087  145.4249  166.2464 F       1  UNL1       -0.1686
     28 F         139.8525  144.4707  164.7360 F       1  UNL1       -0.1686
     29 F         136.9341  144.6116  165.4164 F       1  UNL1       -0.1686
@<TRIPOS>BOND
     1    10     9    1
     2    10    11    1
     3    11    12    1
     4    12    13    1
     5    12     1    1
     6     1     2   ar
     7     2     3   ar
     8     3    20    1
     9    20    21    1
    10    21    23    1
    11    23    26    1
    12    26    27    1
    13    26    28    1
    14    26    29    1
    15    23    24    1
    16    24    25    1
    17     3     4   ar
    18     4     5    1
    19     4     6   ar
    20     6     7   ar
    21     7     8    1
    22    12    14    1
    23    14    15    2
    24    15    16    1
    25    15    17    1
    26    17    10    1
    27     7     1   ar
    28    25    23    1
    29    21    22    1
    30    16    18    1
    31    16    19    1
@<TRIPOS>MOLECULE
*****
 29 31 0 0 0
SMALL
GASTEIGER

@<TRIPOS>ATOM
      1 C         142.1247  140.8652  166.7823 C.ar    1  UNL1        0.0252
      2 C         141.6411  139.5518  166.2427 C.ar    1  UNL1       -0.0009
      3 C         142.3380  138.9182  165.0753 C.ar    1  UNL1        0.0210
      4 C         143.5186  139.5980  164.4475 C.ar    1  UNL1        0.1397
      5 F         144.2156  138.9644  163.2801 F       1  UNL1       -0.2044
      6 C         144.0022  140.9113  164.9871 C.ar    1  UNL1        0.0587
      7 C         143.3052  141.5449  166.1545 C.ar    1  UNL1        0.1401
      8 F         143.7888  142.8583  166.6941 F       1  UNL1       -0.2044
      9 C         139.5474  143.2065  170.9989 C.3     1  UNL1        0.0122
     10 C         140.5022  142.3474  170.2241 C.3     1  UNL1        0.0568
     11 C         140.4729  142.3578  168.7245 C.3     1  UNL1        0.0380
     12 C         141.4276  141.4987  167.9497 C.3     1  UNL1        0.1080
     13 C         140.6856  142.1482  166.8194 C.3     1  UNL1        0.0291
     14 N         142.4118  140.6292  168.6745 N.2     1  UNL1       -0.2509
     15 C         142.4411  140.6188  170.1742 C.2     1  UNL1        0.1481
     16 N         143.4252  139.7493  170.8991 N.pl3   1  UNL1       -0.3380
     17 S         141.4863  141.4779  170.9490 S.3     1  UNL1       -0.0816
     18 H         144.0519  139.1854  170.3906 H       1  UNL1        0.1442
     19 H         143.4445  139.7425  171.8834 H       1  UNL1        0.1442
     20 C         141.8544  137.6048  164.5357 C.3     1  UNL1        0.0980
     21 N         140.4267  137.1912  164.7372 N.3     1  UNL1       -0.2892
     22 H         140.2327  137.2789  165.7347 H       1  UNL1        0.1237
     23 C         139.3275  137.9145  164.0170 C.3     1  UNL1        0.1307
     24 C         138.5160  138.4833  162.8911 C.3     1  UNL1        0.0245
     25 C         139.7742  137.7208  162.5983 C.3     1  UNL1        0.0245
     26 C         138.4991  138.3594  165.1858 C.3     1  UNL1        0.4088
     27 F         137.6707  138.8042  166.3545 F       1  UNL1       -0.1686
     28 F         138.5581  139.7736  164.6894 F       1  UNL1       -0.1686
     29 F         138.4400  136.9451  165.6822 F       1  UNL1       -0.1686
@<TRIPOS>BOND
     1    10     9    1
     2    10    11    1
     3    11    12    1
     4    12    13    1
     5    12     1    1
     6     1     2   ar
     7     2     3   ar
     8     3    20    1
     9    20    21    1
    10    21    23    1
    11    23    26    1
    12    26    27    1
    13    26    28    1
    14    26    29    1
    15    23    24    1
    16    24    25    1
    17     3     4   ar
    18     4     5    1
    19     4     6   ar
    20     6     7   ar
    21     7     8    1
    22    12    14    1
    23    14    15    2
    24    15    16    1
    25    15    17    1
    26    17    10    1
    27     7     1   ar
    28    25    23    1
    29    21    22    1
    30    16    18    1
    31    16    19    1
@<TRIPOS>MOLECULE
*****
 29 31 0 0 0
SMALL
GASTEIGER

@<TRIPOS>ATOM
      1 C         138.9694  139.7005  165.1867 C.ar    1  UNL1        0.0252
      2 C         138.5463  140.9444  164.4629 C.ar    1  UNL1       -0.0009
      3 C         138.1174  140.8678  163.0276 C.ar    1  UNL1        0.0210
      4 C         138.1117  139.5473  162.3160 C.ar    1  UNL1        0.1397
      5 F         137.6828  139.4706  160.8806 F       1  UNL1       -0.2044
      6 C         138.5348  138.3035  163.0397 C.ar    1  UNL1        0.0587
      7 C         138.9637  138.3801  164.4751 C.ar    1  UNL1        0.1401
      8 F         139.3868  137.1362  165.1989 F       1  UNL1       -0.2044
      9 C         140.4762  139.9618  170.4370 C.3     1  UNL1        0.0122
     10 C         140.5407  140.0410  168.9405 C.3     1  UNL1        0.0568
     11 C         139.3338  139.6980  168.1185 C.3     1  UNL1        0.0380
     12 C         139.3983  139.7772  166.6220 C.3     1  UNL1        0.1080
     13 C         137.9779  139.3284  166.7981 C.3     1  UNL1        0.0291
     14 N         140.6697  140.1994  165.9474 N.2     1  UNL1       -0.2509
     15 C         141.8767  140.5424  166.7693 C.2     1  UNL1        0.1481
     16 N         143.1482  140.9646  166.0948 N.pl3   1  UNL1       -0.3380
     17 S         141.8122  140.4632  168.2659 S.3     1  UNL1       -0.0816
     18 H         143.1906  141.0166  165.1125 H       1  UNL1        0.1442
     19 H         143.9404  141.1898  166.6342 H       1  UNL1        0.1442
     20 C         137.6943  142.1116  162.3038 C.3     1  UNL1        0.0980
     21 N         137.6123  143.4162  163.0395 N.3     1  UNL1       -0.2892
     22 H         137.3126  143.1999  163.9902 H       1  UNL1        0.1237
     23 C         138.8268  144.2889  163.1564 C.3     1  UNL1        0.1307
     24 C         140.0812  145.0172  162.7744 C.3     1  UNL1        0.0245
     25 C         139.3638  144.1764  161.7604 C.3     1  UNL1        0.0245
     26 C         138.7116  144.7045  164.5931 C.3     1  UNL1        0.4088
     27 F         138.5963  145.1201  166.0298 F       1  UNL1       -0.1686
     28 F         140.1689  145.0591  164.6075 F       1  UNL1       -0.1686
     29 F         137.2541  144.3500  164.5788 F       1  UNL1       -0.1686
@<TRIPOS>BOND
     1    10     9    1
     2    10    11    1
     3    11    12    1
     4    12    13    1
     5    12     1    1
     6     1     2   ar
     7     2     3   ar
     8     3    20    1
     9    20    21    1
    10    21    23    1
    11    23    26    1
    12    26    27    1
    13    26    28    1
    14    26    29    1
    15    23    24    1
    16    24    25    1
    17     3     4   ar
    18     4     5    1
    19     4     6   ar
    20     6     7   ar
    21     7     8    1
    22    12    14    1
    23    14    15    2
    24    15    16    1
    25    15    17    1
    26    17    10    1
    27     7     1   ar
    28    25    23    1
    29    21    22    1
    30    16    18    1
    31    16    19    1
@<TRIPOS>MOLECULE
*****
 29 31 0 0 0
SMALL
GASTEIGER

@<TRIPOS>ATOM
      1 C         140.2960  142.1384  166.4731 C.ar    1  UNL1        0.0252
      2 C         139.7951  143.3612  165.7632 C.ar    1  UNL1       -0.0009
      3 C         138.6695  143.2484  164.7783 C.ar    1  UNL1        0.0210
      4 C         138.0446  141.9128  164.5031 C.ar    1  UNL1        0.1397
      5 F         136.9189  141.7999  163.5181 F       1  UNL1       -0.2044
      6 C         138.5455  140.6900  165.2129 C.ar    1  UNL1        0.0587
      7 C         139.6712  140.8027  166.1979 C.ar    1  UNL1        0.1401
      8 F         140.1720  139.5799  166.9078 F       1  UNL1       -0.2044
      9 C         144.4405  142.5412  170.0178 C.3     1  UNL1        0.0122
     10 C         143.0441  142.5073  169.4710 C.3     1  UNL1        0.0568
     11 C         142.8180  142.2852  168.0049 C.3     1  UNL1        0.0380
     12 C         141.4216  142.2513  167.4580 C.3     1  UNL1        0.1080
     13 C         142.2009  142.0239  166.1967 C.3     1  UNL1        0.0291
     14 N         140.2514  142.4394  168.3773 N.2     1  UNL1       -0.2509
     15 C         140.4775  142.6615  169.8434 C.2     1  UNL1        0.1481
     16 N         139.3072  142.8496  170.7628 N.pl3   1  UNL1       -0.3380
     17 S         141.8739  142.6954  170.3902 S.3     1  UNL1       -0.0816
     18 H         138.3907  142.8273  170.4039 H       1  UNL1        0.1442
     19 H         139.4556  142.9953  171.7250 H       1  UNL1        0.1442
     20 C         138.1686  144.4712  164.0684 C.3     1  UNL1        0.0980
     21 N         138.3052  144.5824  162.5788 N.3     1  UNL1       -0.2892
     22 H         138.1813  145.5674  162.3445 H       1  UNL1        0.1237
     23 C         139.5681  144.1327  161.9058 C.3     1  UNL1        0.1307
     24 C         140.4915  143.3499  161.0202 C.3     1  UNL1        0.0245
     25 C         139.0293  143.0176  161.0596 C.3     1  UNL1        0.0245
     26 C         140.5454  145.0917  162.5184 C.3     1  UNL1        0.4088
     27 F         141.5227  146.0506  163.1309 F       1  UNL1       -0.1686
     28 F         141.3658  143.9383  163.0152 F       1  UNL1       -0.1686
     29 F         139.7251  146.2451  162.0217 F       1  UNL1       -0.1686
@<TRIPOS>BOND
     1    10     9    1
     2    10    11    1
     3    11    12    1
     4    12    13    1
     5    12     1    1
     6     1     2   ar
     7     2     3   ar
     8     3    20    1
     9    20    21    1
    10    21    23    1
    11    23    26    1
    12    26    27    1
    13    26    28    1
    14    26    29    1
    15    23    24    1
    16    24    25    1
    17     3     4   ar
    18     4     5    1
    19     4     6   ar
    20     6     7   ar
    21     7     8    1
    22    12    14    1
    23    14    15    2
    24    15    16    1
    25    15    17    1
    26    17    10    1
    27     7     1   ar
    28    25    23    1
    29    21    22    1
    30    16    18    1
    31    16    19    1
@<TRIPOS>MOLECULE
*****
 29 31 0 0 0
SMALL
GASTEIGER

@<TRIPOS>ATOM
      1 C         140.7302  140.0418  166.2541 C.ar    1  UNL1        0.0252
      2 C         141.9761  139.8702  165.4365 C.ar    1  UNL1       -0.0009
      3 C         142.0556  138.7787  164.4108 C.ar    1  UNL1        0.0210
      4 C         140.8893  137.8587  164.2026 C.ar    1  UNL1        0.1397
      5 F         140.9688  136.7670  163.1768 F       1  UNL1       -0.2044
      6 C         139.6435  138.0302  165.0202 C.ar    1  UNL1        0.0587
      7 C         139.5639  139.1218  166.0459 C.ar    1  UNL1        0.1401
      8 F         138.3181  139.2934  166.8636 F       1  UNL1       -0.2044
      9 C         140.4219  144.0610  169.9494 C.3     1  UNL1        0.0122
     10 C         140.6507  142.7061  169.3478 C.3     1  UNL1        0.0568
     11 C         140.4220  142.4883  167.8814 C.3     1  UNL1        0.0380
     12 C         140.6507  141.1334  167.2798 C.3     1  UNL1        0.1080
     13 C         140.2208  141.8913  166.0589 C.3     1  UNL1        0.0291
     14 N         141.1082  139.9963  168.1445 N.2     1  UNL1       -0.2509
     15 C         141.3370  140.2142  169.6108 C.2     1  UNL1        0.1481
     16 N         141.7945  139.0771  170.4756 N.pl3   1  UNL1       -0.3380
     17 S         141.1082  141.5690  170.2125 S.3     1  UNL1       -0.0816
     18 H         141.9447  138.1878  170.0808 H       1  UNL1        0.1442
     19 H         141.9446  139.2201  171.4381 H       1  UNL1        0.1442
     20 C         143.3014  138.6071  163.5931 C.3     1  UNL1        0.0980
     21 N         144.4399  139.5711  163.7497 N.3     1  UNL1       -0.2892
     22 H         145.2985  139.0373  163.6141 H       1  UNL1        0.1237
     23 C         144.5324  140.7738  162.8580 C.3     1  UNL1        0.1307
     24 C         144.5138  141.6101  161.6130 C.3     1  UNL1        0.0245
     25 C         144.2450  140.1367  161.5308 C.3     1  UNL1        0.0245
     26 C         144.8519  141.8286  163.8756 C.3     1  UNL1        0.4088
     27 F         145.1715  142.8833  164.8931 F       1  UNL1       -0.1686
     28 F         143.4421  142.3342  163.7942 F       1  UNL1       -0.1686
     29 F         146.2618  141.3229  163.9570 F       1  UNL1       -0.1686
@<TRIPOS>BOND
     1    10     9    1
     2    10    11    1
     3    11    12    1
     4    12    13    1
     5    12     1    1
     6     1     2   ar
     7     2     3   ar
     8     3    20    1
     9    20    21    1
    10    21    23    1
    11    23    26    1
    12    26    27    1
    13    26    28    1
    14    26    29    1
    15    23    24    1
    16    24    25    1
    17     3     4   ar
    18     4     5    1
    19     4     6   ar
    20     6     7   ar
    21     7     8    1
    22    12    14    1
    23    14    15    2
    24    15    16    1
    25    15    17    1
    26    17    10    1
    27     7     1   ar
    28    25    23    1
    29    21    22    1
    30    16    18    1
    31    16    19    1
@<TRIPOS>MOLECULE
*****
 29 31 0 0 0
SMALL
GASTEIGER

@<TRIPOS>ATOM
      1 C         139.4829  142.4210  164.4917 C.ar    1  UNL1        0.0252
      2 C         140.8412  142.4296  163.8552 C.ar    1  UNL1       -0.0009
      3 C         141.3472  143.6722  163.1845 C.ar    1  UNL1        0.0210
      4 C         140.4950  144.9062  163.1503 C.ar    1  UNL1        0.1397
      5 F         141.0010  146.1489  162.4796 F       1  UNL1       -0.2044
      6 C         139.1368  144.8975  163.7868 C.ar    1  UNL1        0.0587
      7 C         138.6307  143.6549  164.4576 C.ar    1  UNL1        0.1401
      8 F         137.2725  143.6462  165.0941 F       1  UNL1       -0.2044
      9 C         137.6060  137.8766  166.8856 C.3     1  UNL1        0.0122
     10 C         138.3495  139.1626  166.6767 C.3     1  UNL1        0.0568
     11 C         138.2335  139.8924  165.3714 C.3     1  UNL1        0.0380
     12 C         138.9770  141.1783  165.1624 C.3     1  UNL1        0.1080
     13 C         138.2931  141.0538  163.8332 C.3     1  UNL1        0.0291
     14 N         139.8365  141.7344  166.2587 N.2     1  UNL1       -0.2509
     15 C         139.9526  141.0045  167.5640 C.2     1  UNL1        0.1481
     16 N         140.8121  141.5606  168.6604 N.pl3   1  UNL1       -0.3380
     17 S         139.2091  139.7186  167.7730 S.3     1  UNL1       -0.0816
     18 H         141.3001  142.4045  168.5233 H       1  UNL1        0.1442
     19 H         140.8883  141.0815  169.5171 H       1  UNL1        0.1442
     20 C         142.7054  143.6809  162.5480 C.3     1  UNL1        0.0980
     21 N         143.9301  143.8558  163.3962 N.3     1  UNL1       -0.2892
     22 H         143.6567  144.4308  164.1932 H       1  UNL1        0.1237
     23 C         144.6360  142.6542  163.9511 C.3     1  UNL1        0.1307
     24 C         145.4859  141.4195  164.0064 C.3     1  UNL1        0.0245
     25 C         145.2959  142.1415  162.7055 C.3     1  UNL1        0.0245
     26 C         144.2212  142.7495  165.3895 C.3     1  UNL1        0.4088
     27 F         143.8065  142.8449  166.8278 F       1  UNL1       -0.1686
     28 F         144.7933  144.1342  165.4627 F       1  UNL1       -0.1686
     29 F         143.6491  141.3648  165.3163 F       1  UNL1       -0.1686
@<TRIPOS>BOND
     1    10     9    1
     2    10    11    1
     3    11    12    1
     4    12    13    1
     5    12     1    1
     6     1     2   ar
     7     2     3   ar
     8     3    20    1
     9    20    21    1
    10    21    23    1
    11    23    26    1
    12    26    27    1
    13    26    28    1
    14    26    29    1
    15    23    24    1
    16    24    25    1
    17     3     4   ar
    18     4     5    1
    19     4     6   ar
    20     6     7   ar
    21     7     8    1
    22    12    14    1
    23    14    15    2
    24    15    16    1
    25    15    17    1
    26    17    10    1
    27     7     1   ar
    28    25    23    1
    29    21    22    1
    30    16    18    1
    31    16    19    1
@<TRIPOS>MOLECULE
*****
 29 31 0 0 0
SMALL
GASTEIGER

@<TRIPOS>ATOM
      1 C         142.5649  140.5868  166.3483 C.ar    1  UNL1        0.0252
      2 C         142.9660  141.9473  165.8603 C.ar    1  UNL1       -0.0009
      3 C         144.0699  142.0881  164.8545 C.ar    1  UNL1        0.0210
      4 C         144.7727  140.8683  164.3367 C.ar    1  UNL1        0.1397
      5 F         145.8766  141.0090  163.3308 F       1  UNL1       -0.2044
      6 C         144.3716  139.5078  164.8246 C.ar    1  UNL1        0.0587
      7 C         143.2677  139.3670  165.8304 C.ar    1  UNL1        0.1401
      8 F         142.8666  138.0064  166.3184 F       1  UNL1       -0.2044
      9 C         138.4989  140.0753  169.9690 C.3     1  UNL1        0.0122
     10 C         139.8824  140.1973  169.4025 C.3     1  UNL1        0.0568
     11 C         140.0775  140.3241  167.9207 C.3     1  UNL1        0.0380
     12 C         141.4611  140.4461  167.3541 C.3     1  UNL1        0.1080
     13 C         140.6560  140.4998  166.0896 C.3     1  UNL1        0.0291
     14 N         142.6494  140.4413  168.2693 N.2     1  UNL1       -0.2509
     15 C         142.4543  140.3145  169.7511 C.2     1  UNL1        0.1481
     16 N         143.6427  140.3097  170.6664 N.pl3   1  UNL1       -0.3380
     17 S         141.0708  140.1925  170.3177 S.3     1  UNL1       -0.0816
     18 H         144.5508  140.3897  170.2946 H       1  UNL1        0.1442
     19 H         143.5146  140.2264  171.6390 H       1  UNL1        0.1442
     20 C         144.4710  143.4486  164.3666 C.3     1  UNL1        0.0980
     21 N         143.9574  143.9552  163.0514 N.3     1  UNL1       -0.2892
     22 H         144.2267  143.2693  162.3462 H       1  UNL1        0.1237
     23 C         142.4910  144.2123  162.8677 C.3     1  UNL1        0.1307
     24 C         141.1381  144.8384  163.0336 C.3     1  UNL1        0.0245
     25 C         142.3083  145.3643  163.8107 C.3     1  UNL1        0.0245
     26 C         142.1644  143.1494  161.8608 C.3     1  UNL1        0.4088
     27 F         141.8379  142.0867  160.8538 F       1  UNL1       -0.1686
     28 F         141.4183  142.3826  162.9120 F       1  UNL1       -0.1686
     29 F         142.9105  143.9163  160.8094 F       1  UNL1       -0.1686
@<TRIPOS>BOND
     1    10     9    1
     2    10    11    1
     3    11    12    1
     4    12    13    1
     5    12     1    1
     6     1     2   ar
     7     2     3   ar
     8     3    20    1
     9    20    21    1
    10    21    23    1
    11    23    26    1
    12    26    27    1
    13    26    28    1
    14    26    29    1
    15    23    24    1
    16    24    25    1
    17     3     4   ar
    18     4     5    1
    19     4     6   ar
    20     6     7   ar
    21     7     8    1
    22    12    14    1
    23    14    15    2
    24    15    16    1
    25    15    17    1
    26    17    10    1
    27     7     1   ar
    28    25    23    1
    29    21    22    1
    30    16    18    1
    31    16    19    1
@<TRIPOS>MOLECULE
*****
 29 31 0 0 0
SMALL
GASTEIGER

@<TRIPOS>ATOM
      1 C         142.3177  140.6359  166.8214 C.ar    1  UNL1        0.0252
      2 C         142.4227  141.3455  165.5040 C.ar    1  UNL1       -0.0009
      3 C         143.1738  140.7137  164.3697 C.ar    1  UNL1        0.0210
      4 C         143.8198  139.3724  164.5527 C.ar    1  UNL1        0.1397
      5 F         144.5710  138.7406  163.4183 F       1  UNL1       -0.2044
      6 C         143.7148  138.6628  165.8700 C.ar    1  UNL1        0.0587
      7 C         142.9637  139.2946  167.0044 C.ar    1  UNL1        0.1401
      8 F         142.8586  138.5850  168.3219 F       1  UNL1       -0.2044
      9 C         139.5260  142.9199  170.9316 C.3     1  UNL1        0.0122
     10 C         140.6746  142.4857  170.0701 C.3     1  UNL1        0.0568
     11 C         140.4180  141.7020  168.8172 C.3     1  UNL1        0.0380
     12 C         141.5666  141.2677  167.9557 C.3     1  UNL1        0.1080
     13 C         140.4222  140.6989  167.1703 C.3     1  UNL1        0.0291
     14 N         142.9717  141.6172  168.3472 N.2     1  UNL1       -0.2509
     15 C         143.2283  142.4008  169.6002 C.2     1  UNL1        0.1481
     16 N         144.6336  142.7503  169.9917 N.pl3   1  UNL1       -0.3380
     17 S         142.0797  142.8351  170.4616 S.3     1  UNL1       -0.0816
     18 H         145.3875  142.4652  169.4263 H       1  UNL1        0.1442
     19 H         144.8020  143.2646  170.8141 H       1  UNL1        0.1442
     20 C         143.2789  141.4233  163.0523 C.3     1  UNL1        0.0980
     21 N         142.3790  142.5853  162.7524 N.3     1  UNL1       -0.2892
     22 H         141.5284  142.4476  163.2983 H       1  UNL1        0.1237
     23 C         142.8457  143.9849  163.0236 C.3     1  UNL1        0.1307
     24 C         143.7714  145.1478  163.2254 C.3     1  UNL1        0.0245
     25 C         144.3292  143.7897  162.9181 C.3     1  UNL1        0.0245
     26 C         141.5243  144.6661  163.2233 C.3     1  UNL1        0.4088
     27 F         140.2029  145.3472  163.4229 F       1  UNL1       -0.1686
     28 F         141.5462  144.2836  164.6735 F       1  UNL1       -0.1686
     29 F         141.5023  145.0486  161.7730 F       1  UNL1       -0.1686
@<TRIPOS>BOND
     1    10     9    1
     2    10    11    1
     3    11    12    1
     4    12    13    1
     5    12     1    1
     6     1     2   ar
     7     2     3   ar
     8     3    20    1
     9    20    21    1
    10    21    23    1
    11    23    26    1
    12    26    27    1
    13    26    28    1
    14    26    29    1
    15    23    24    1
    16    24    25    1
    17     3     4   ar
    18     4     5    1
    19     4     6   ar
    20     6     7   ar
    21     7     8    1
    22    12    14    1
    23    14    15    2
    24    15    16    1
    25    15    17    1
    26    17    10    1
    27     7     1   ar
    28    25    23    1
    29    21    22    1
    30    16    18    1
    31    16    19    1
@<TRIPOS>MOLECULE
*****
 29 31 0 0 0
SMALL
GASTEIGER

@<TRIPOS>ATOM
      1 C         142.6393  141.9068  165.8737 C.ar    1  UNL1        0.0252
      2 C         142.5224  143.2787  165.2785 C.ar    1  UNL1       -0.0009
      3 C         143.3547  143.6532  164.0881 C.ar    1  UNL1        0.0210
      4 C         144.3038  142.6558  163.4929 C.ar    1  UNL1        0.1397
      5 F         145.1362  143.0303  162.3024 F       1  UNL1       -0.2044
      6 C         144.4207  141.2840  164.0880 C.ar    1  UNL1        0.0587
      7 C         143.5884  140.9094  165.2784 C.ar    1  UNL1        0.1401
      8 F         143.7053  139.5375  165.8737 F       1  UNL1       -0.2044
      9 C         139.5600  140.5219  170.1754 C.3     1  UNL1        0.0122
     10 C         140.7143  141.0392  169.3690 C.3     1  UNL1        0.0568
     11 C         140.6527  141.0152  167.8705 C.3     1  UNL1        0.0380
     12 C         141.8069  141.5324  167.0641 C.3     1  UNL1        0.1080
     13 C         140.8803  141.1213  165.9585 C.3     1  UNL1        0.0291
     14 N         143.0227  142.0736  167.7562 N.2     1  UNL1       -0.2509
     15 C         143.0842  142.0976  169.2547 C.2     1  UNL1        0.1481
     16 N         144.3000  142.6388  169.9469 N.pl3   1  UNL1       -0.3380
     17 S         141.9300  141.5803  170.0611 S.3     1  UNL1       -0.0816
     18 H         145.0575  142.9782  169.4176 H       1  UNL1        0.1442
     19 H         144.3404  142.6545  170.9304 H       1  UNL1        0.1442
     20 C         143.2378  145.0252  163.4929 C.3     1  UNL1        0.0980
     21 N         142.5507  145.2140  162.1730 N.3     1  UNL1       -0.2892
     22 H         143.2639  145.1067  161.4517 H       1  UNL1        0.1237
     23 C         141.4079  144.3218  161.7879 C.3     1  UNL1        0.1307
     24 C         140.6346  143.2460  161.0847 C.3     1  UNL1        0.0245
     25 C         142.0746  143.4831  160.7382 C.3     1  UNL1        0.0245
     26 C         140.3444  144.8508  162.7040 C.3     1  UNL1        0.4088
     27 F         139.2809  145.3796  163.6200 F       1  UNL1       -0.1686
     28 F         140.5935  146.2385  162.1920 F       1  UNL1       -0.1686
     29 F         140.0952  143.4630  163.2160 F       1  UNL1       -0.1686
@<TRIPOS>BOND
     1    10     9    1
     2    10    11    1
     3    11    12    1
     4    12    13    1
     5    12     1    1
     6     1     2   ar
     7     2     3   ar
     8     3    20    1
     9    20    21    1
    10    21    23    1
    11    23    26    1
    12    26    27    1
    13    26    28    1
    14    26    29    1
    15    23    24    1
    16    24    25    1
    17     3     4   ar
    18     4     5    1
    19     4     6   ar
    20     6     7   ar
    21     7     8    1
    22    12    14    1
    23    14    15    2
    24    15    16    1
    25    15    17    1
    26    17    10    1
    27     7     1   ar
    28    25    23    1
    29    21    22    1
    30    16    18    1
    31    16    19    1
