@<TRIPOS>MOLECULE
*****
 27 30 0 0 0
SMALL
GASTEIGER

@<TRIPOS>ATOM
      1 C         140.7669  142.0097  167.3214 C.3     1  UNL1        0.1686
      2 C         142.0941  141.3129  167.3770 C.3     1  UNL1        0.0595
      3 C         143.0352  141.5816  168.5137 C.3     1  UNL1        0.0611
      4 C         143.6246  142.1338  169.7777 C.3     1  UNL1        0.0175
      5 C         142.6355  143.0935  170.3697 C.3     1  UNL1        0.0175
      6 C         141.4347  143.1345  169.4716 C.3     1  UNL1        0.0611
      7 C         140.3809  142.9752  168.4025 C.3     1  UNL1        0.0595
      8 N         141.6818  142.2001  168.3245 N.3     1  UNL1       -0.2750
      9 O         139.8257  141.7409  166.1846 O.3     1  UNL1       -0.4791
     10 C         139.2825  138.2924  164.2972 C.ar    1  UNL1        0.0561
     11 C         138.4882  137.5327  165.3179 C.ar    1  UNL1        0.0047
     12 C         138.1398  138.1757  166.6275 C.ar    1  UNL1        0.0033
     13 C         138.5856  139.5784  166.9164 C.ar    1  UNL1        0.0369
     14 C         139.3799  140.3381  165.8957 C.ar    1  UNL1        0.1385
     15 C         139.7284  139.6952  164.5861 C.ar    1  UNL1        0.0414
     16 N         138.6552  137.6899  161.8490 N.am    1  UNL1       -0.3253
     17 C         139.6309  137.6494  162.9876 C.2     1  UNL1        0.2428
     18 O         140.9552  136.9659  162.8165 O.2     1  UNL1       -0.2704
     19 H         138.8839  137.2679  160.9895 H       1  UNL1        0.1453
     20 H         137.7860  138.1385  161.9613 H       1  UNL1        0.1453
     21 C         140.7407  141.9314  167.1878 C.3     1  UNL1        0.0720
     22 C         140.5868  142.9389  166.0873 C.3     1  UNL1        0.0160
     23 C         139.3262  143.7446  165.9789 C.3     1  UNL1        0.0014
     24 C         139.1723  144.7520  164.8784 C.3     1  UNL1        0.0000
     25 C         140.2790  144.9539  163.8862 C.3     1  UNL1        0.0000
     26 C         141.5397  144.1482  163.9946 C.3     1  UNL1        0.0000
     27 C         141.6935  143.1407  165.0952 C.3     1  UNL1        0.0014
@<TRIPOS>BOND
     1    16    17   am
     2    17    18    2
     3    17    10    1
     4    10    11   ar
     5    11    12   ar
     6    12    13   ar
     7    13    14   ar
     8    14     9    1
     9     1     9    1
    10     1     2    1
    11     3     2    1
    12     3     4    1
    13     4     5    1
    14     6     5    1
    15     6     7    1
    16     6     8    1
    17     8    21    1
    18    21    22    1
    19    22    23    1
    20    23    24    1
    21    24    25    1
    22    25    26    1
    23    26    27    1
    24    14    15   ar
    25    15    10   ar
    26     7     1    1
    27    27    22    1
    28     8     3    1
    29    16    19    1
    30    16    20    1
@<TRIPOS>MOLECULE
*****
 27 30 0 0 0
SMALL
GASTEIGER

@<TRIPOS>ATOM
      1 C         141.6313  142.3004  165.8769 C.3     1  UNL1        0.1686
      2 C         140.5406  143.1674  165.3215 C.3     1  UNL1        0.0595
      3 C         140.8772  144.2840  164.3782 C.3     1  UNL1        0.0611
      4 C         141.6465  145.2359  163.5110 C.3     1  UNL1        0.0175
      5 C         143.1003  144.8795  163.6079 C.3     1  UNL1        0.0175
      6 C         143.2295  143.7073  164.5349 C.3     1  UNL1        0.0611
      7 C         143.0587  142.5501  165.4891 C.3     1  UNL1        0.0595
      8 N         141.8555  143.3393  165.0110 N.3     1  UNL1       -0.2750
      9 O         141.2948  141.1836  166.8202 O.3     1  UNL1       -0.4791
     10 C         139.5431  138.3289  164.6915 C.ar    1  UNL1        0.0561
     11 C         138.3803  137.9887  165.5759 C.ar    1  UNL1        0.0047
     12 C         138.1891  138.7136  166.8751 C.ar    1  UNL1        0.0033
     13 C         139.1605  139.7785  167.2899 C.ar    1  UNL1        0.0369
     14 C         140.3233  140.1186  166.4054 C.ar    1  UNL1        0.1385
     15 C         140.5146  139.3939  165.1063 C.ar    1  UNL1        0.0414
     16 N         138.6353  137.5914  162.3715 N.am    1  UNL1       -0.3253
     17 C         139.7344  137.6040  163.3923 C.2     1  UNL1        0.2428
     18 O         141.0248  136.8917  163.1137 O.2     1  UNL1       -0.2704
     19 H         138.7608  137.1157  161.5188 H       1  UNL1        0.1453
     20 H         137.7883  138.0589  162.5543 H       1  UNL1        0.1453
     21 C         141.5189  142.2226  165.9542 C.3     1  UNL1        0.0720
     22 C         141.7478  142.3903  167.4272 C.3     1  UNL1        0.0160
     23 C         143.0442  141.9498  168.0396 C.3     1  UNL1        0.0014
     24 C         143.2731  142.1174  169.5125 C.3     1  UNL1        0.0000
     25 C         142.2056  142.7257  170.3729 C.3     1  UNL1        0.0000
     26 C         140.9091  143.1663  169.7605 C.3     1  UNL1        0.0000
     27 C         140.6803  142.9985  168.2875 C.3     1  UNL1        0.0014
@<TRIPOS>BOND
     1    16    17   am
     2    17    18    2
     3    17    10    1
     4    10    11   ar
     5    11    12   ar
     6    12    13   ar
     7    13    14   ar
     8    14     9    1
     9     1     9    1
    10     1     2    1
    11     3     2    1
    12     3     4    1
    13     4     5    1
    14     6     5    1
    15     6     7    1
    16     6     8    1
    17     8    21    1
    18    21    22    1
    19    22    23    1
    20    23    24    1
    21    24    25    1
    22    25    26    1
    23    26    27    1
    24    14    15   ar
    25    15    10   ar
    26     7     1    1
    27    27    22    1
    28     8     3    1
    29    16    19    1
    30    16    20    1
@<TRIPOS>MOLECULE
*****
 27 30 0 0 0
SMALL
GASTEIGER

@<TRIPOS>ATOM
      1 C         142.0466  141.9118  164.9646 C.3     1  UNL1        0.1686
      2 C         142.4434  140.5521  164.4711 C.3     1  UNL1        0.0595
      3 C         143.8414  140.3094  163.9848 C.3     1  UNL1        0.0611
      4 C         145.2789  140.5203  163.6116 C.3     1  UNL1        0.0175
      5 C         145.6278  141.9502  163.9008 C.3     1  UNL1        0.0175
      6 C         144.4060  142.6230  164.4527 C.3     1  UNL1        0.0611
      7 C         143.0478  143.0288  164.9719 C.3     1  UNL1        0.0595
      8 N         143.3019  141.6089  164.5046 N.3     1  UNL1       -0.2750
      9 O         140.6484  142.1547  165.4510 O.3     1  UNL1       -0.4791
     10 C         139.9943  142.0793  169.3646 C.ar    1  UNL1        0.0561
     11 C         139.4014  140.7111  169.5266 C.ar    1  UNL1        0.0047
     12 C         139.2242  139.8240  168.3301 C.ar    1  UNL1        0.0033
     13 C         139.6399  140.3052  166.9716 C.ar    1  UNL1        0.0369
     14 C         140.2328  141.6735  166.8096 C.ar    1  UNL1        0.1385
     15 C         140.4100  142.5606  168.0060 C.ar    1  UNL1        0.0414
     16 N         140.1203  144.4572  170.4037 N.am    1  UNL1       -0.3253
     17 C         140.1716  142.9664  170.5611 C.2     1  UNL1        0.2428
     18 O         140.4001  142.3626  171.9151 O.2     1  UNL1       -0.2704
     19 H         140.2366  145.0394  171.1890 H       1  UNL1        0.1453
     20 H         139.9703  144.8535  169.5150 H       1  UNL1        0.1453
     21 C         141.9039  141.8517  164.9909 C.3     1  UNL1        0.0720
     22 C         140.9525  142.6643  164.1635 C.3     1  UNL1        0.0160
     23 C         140.7696  144.1254  164.4491 C.3     1  UNL1        0.0014
     24 C         139.8183  144.9380  163.6218 C.3     1  UNL1        0.0000
     25 C         139.0498  144.2895  162.5088 C.3     1  UNL1        0.0000
     26 C         139.2326  142.8282  162.2232 C.3     1  UNL1        0.0000
     27 C         140.1840  142.0157  163.0506 C.3     1  UNL1        0.0014
@<TRIPOS>BOND
     1    16    17   am
     2    17    18    2
     3    17    10    1
     4    10    11   ar
     5    11    12   ar
     6    12    13   ar
     7    13    14   ar
     8    14     9    1
     9     1     9    1
    10     1     2    1
    11     3     2    1
    12     3     4    1
    13     4     5    1
    14     6     5    1
    15     6     7    1
    16     6     8    1
    17     8    21    1
    18    21    22    1
    19    22    23    1
    20    23    24    1
    21    24    25    1
    22    25    26    1
    23    26    27    1
    24    14    15   ar
    25    15    10   ar
    26     7     1    1
    27    27    22    1
    28     8     3    1
    29    16    19    1
    30    16    20    1
@<TRIPOS>MOLECULE
*****
 27 30 0 0 0
SMALL
GASTEIGER

@<TRIPOS>ATOM
      1 C         140.2319  141.8163  165.9750 C.3     1  UNL1        0.1686
      2 C         139.3094  140.9256  165.1969 C.3     1  UNL1        0.0595
      3 C         138.2415  141.5253  164.3308 C.3     1  UNL1        0.0611
      4 C         137.3646  142.5204  163.6303 C.3     1  UNL1        0.0175
      5 C         137.8134  143.8951  164.0288 C.3     1  UNL1        0.0175
      6 C         138.9677  143.7496  164.9757 C.3     1  UNL1        0.0611
      7 C         140.0866  143.3067  165.8871 C.3     1  UNL1        0.0595
      8 N         139.2323  142.2850  165.1623 N.3     1  UNL1       -0.2750
      9 O         141.2999  141.2166  166.8411 O.3     1  UNL1       -0.4791
     10 C         144.3231  140.3051  164.4372 C.ar    1  UNL1        0.0561
     11 C         144.7105  138.9566  164.9677 C.ar    1  UNL1        0.0047
     12 C         143.9610  138.3615  166.1228 C.ar    1  UNL1        0.0033
     13 C         142.8242  139.1148  166.7472 C.ar    1  UNL1        0.0369
     14 C         142.4368  140.4633  166.2166 C.ar    1  UNL1        0.1385
     15 C         143.1862  141.0584  165.0617 C.ar    1  UNL1        0.0414
     16 N         146.2119  141.8430  163.5332 N.am    1  UNL1       -0.3253
     17 C         145.0725  140.9002  163.2821 C.2     1  UNL1        0.2428
     18 O         144.6827  140.5525  161.8760 O.2     1  UNL1       -0.2704
     19 H         146.7038  142.2336  162.7751 H       1  UNL1        0.1453
     20 H         146.4678  142.0712  164.4561 H       1  UNL1        0.1453
     21 C         140.3001  141.6853  166.0283 C.3     1  UNL1        0.0720
     22 C         140.1540  141.7048  167.5211 C.3     1  UNL1        0.0160
     23 C         139.5357  140.5362  168.2295 C.3     1  UNL1        0.0014
     24 C         139.3896  140.5558  169.7222 C.3     1  UNL1        0.0000
     25 C         139.8618  141.7440  170.5065 C.3     1  UNL1        0.0000
     26 C         140.4802  142.9127  169.7981 C.3     1  UNL1        0.0000
     27 C         140.6263  142.8930  168.3053 C.3     1  UNL1        0.0014
@<TRIPOS>BOND
     1    16    17   am
     2    17    18    2
     3    17    10    1
     4    10    11   ar
     5    11    12   ar
     6    12    13   ar
     7    13    14   ar
     8    14     9    1
     9     1     9    1
    10     1     2    1
    11     3     2    1
    12     3     4    1
    13     4     5    1
    14     6     5    1
    15     6     7    1
    16     6     8    1
    17     8    21    1
    18    21    22    1
    19    22    23    1
    20    23    24    1
    21    24    25    1
    22    25    26    1
    23    26    27    1
    24    14    15   ar
    25    15    10   ar
    26     7     1    1
    27    27    22    1
    28     8     3    1
    29    16    19    1
    30    16    20    1
@<TRIPOS>MOLECULE
*****
 27 30 0 0 0
SMALL
GASTEIGER

@<TRIPOS>ATOM
      1 C         140.4614  141.6506  166.6209 C.3     1  UNL1        0.1686
      2 C         139.8640  140.3423  167.0466 C.3     1  UNL1        0.0595
      3 C         139.4750  140.1262  168.4791 C.3     1  UNL1        0.0611
      4 C         139.2488  140.3489  169.9451 C.3     1  UNL1        0.0175
      5 C         139.7141  141.7349  170.2806 C.3     1  UNL1        0.0175
      6 C         140.2279  142.3688  169.0219 C.3     1  UNL1        0.0611
      7 C         140.6699  142.7429  167.6277 C.3     1  UNL1        0.0595
      8 N         140.0801  141.3745  167.9085 N.3     1  UNL1       -0.2750
      9 O         140.8504  141.8668  165.1884 O.3     1  UNL1       -0.4791
     10 C         143.1840  139.3290  163.2229 C.ar    1  UNL1        0.0561
     11 C         144.5396  139.8897  163.5359 C.ar    1  UNL1        0.0047
     12 C         144.6654  141.1094  164.3998 C.ar    1  UNL1        0.0033
     13 C         143.4357  141.7684  164.9506 C.ar    1  UNL1        0.0369
     14 C         142.0802  141.2077  164.6375 C.ar    1  UNL1        0.1385
     15 C         141.9543  139.9880  163.7737 C.ar    1  UNL1        0.0414
     16 N         141.8213  137.2636  162.4307 N.am    1  UNL1       -0.3253
     17 C         143.0582  138.1092  162.3590 C.2     1  UNL1        0.2428
     18 O         144.1693  137.7349  161.4232 O.2     1  UNL1       -0.2704
     19 H         141.7387  136.4630  161.8637 H       1  UNL1        0.1453
     20 H         141.0921  137.5092  163.0449 H       1  UNL1        0.1453
     21 C         140.4690  141.5906  166.4760 C.3     1  UNL1        0.0720
     22 C         139.5959  142.4160  165.5780 C.3     1  UNL1        0.0160
     23 C         138.4808  141.7670  164.8129 C.3     1  UNL1        0.0014
     24 C         137.6077  142.5923  163.9150 C.3     1  UNL1        0.0000
     25 C         137.8496  144.0667  163.7821 C.3     1  UNL1        0.0000
     26 C         138.9647  144.7158  164.5473 C.3     1  UNL1        0.0000
     27 C         139.8378  143.8903  165.4452 C.3     1  UNL1        0.0014
@<TRIPOS>BOND
     1    16    17   am
     2    17    18    2
     3    17    10    1
     4    10    11   ar
     5    11    12   ar
     6    12    13   ar
     7    13    14   ar
     8    14     9    1
     9     1     9    1
    10     1     2    1
    11     3     2    1
    12     3     4    1
    13     4     5    1
    14     6     5    1
    15     6     7    1
    16     6     8    1
    17     8    21    1
    18    21    22    1
    19    22    23    1
    20    23    24    1
    21    24    25    1
    22    25    26    1
    23    26    27    1
    24    14    15   ar
    25    15    10   ar
    26     7     1    1
    27    27    22    1
    28     8     3    1
    29    16    19    1
    30    16    20    1
@<TRIPOS>MOLECULE
*****
 27 30 0 0 0
SMALL
GASTEIGER

@<TRIPOS>ATOM
      1 C         140.0500  140.8055  165.1704 C.3     1  UNL1        0.1686
      2 C         139.0262  139.8080  165.6250 C.3     1  UNL1        0.0595
      3 C         138.7756  138.5693  164.8169 C.3     1  UNL1        0.0611
      4 C         138.8579  137.5262  163.7422 C.3     1  UNL1        0.0175
      5 C         139.8954  137.9630  162.7508 C.3     1  UNL1        0.0175
      6 C         140.4544  139.2760  163.2129 C.3     1  UNL1        0.0611
      7 C         140.8232  140.5645  163.9079 C.3     1  UNL1        0.0595
      8 N         139.7623  139.6507  164.4899 N.3     1  UNL1       -0.2750
      9 O         140.3006  142.0443  165.9784 O.3     1  UNL1       -0.4791
     10 C         141.1985  141.5023  169.8059 C.ar    1  UNL1        0.0561
     11 C         142.6688  141.7990  169.7969 C.ar    1  UNL1        0.0047
     12 C         143.3497  142.1774  168.5151 C.ar    1  UNL1        0.0033
     13 C         142.5603  142.2592  167.2423 C.ar    1  UNL1        0.0369
     14 C         141.0900  141.9625  167.2513 C.ar    1  UNL1        0.1385
     15 C         140.4091  141.5841  168.5331 C.ar    1  UNL1        0.0414
     16 N         139.9749  139.7370  171.2678 N.am    1  UNL1       -0.3253
     17 C         140.5176  141.1238  171.0878 C.2     1  UNL1        0.2428
     18 O         140.3793  142.1322  172.1897 O.2     1  UNL1       -0.2704
     19 H         139.5280  139.4887  172.1091 H       1  UNL1        0.1453
     20 H         140.0657  139.0752  170.5446 H       1  UNL1        0.1453
     21 C         140.0128  140.8894  165.2979 C.3     1  UNL1        0.0720
     22 C         139.6277  142.2321  164.7513 C.3     1  UNL1        0.0160
     23 C         140.6849  143.1646  164.2387 C.3     1  UNL1        0.0014
     24 C         140.2998  144.5073  163.6922 C.3     1  UNL1        0.0000
     25 C         138.8574  144.9175  163.6581 C.3     1  UNL1        0.0000
     26 C         137.8000  143.9850  164.1708 C.3     1  UNL1        0.0000
     27 C         138.1853  142.6423  164.7173 C.3     1  UNL1        0.0014
@<TRIPOS>BOND
     1    16    17   am
     2    17    18    2
     3    17    10    1
     4    10    11   ar
     5    11    12   ar
     6    12    13   ar
     7    13    14   ar
     8    14     9    1
     9     1     9    1
    10     1     2    1
    11     3     2    1
    12     3     4    1
    13     4     5    1
    14     6     5    1
    15     6     7    1
    16     6     8    1
    17     8    21    1
    18    21    22    1
    19    22    23    1
    20    23    24    1
    21    24    25    1
    22    25    26    1
    23    26    27    1
    24    14    15   ar
    25    15    10   ar
    26     7     1    1
    27    27    22    1
    28     8     3    1
    29    16    19    1
    30    16    20    1
@<TRIPOS>MOLECULE
*****
 27 30 0 0 0
SMALL
GASTEIGER

@<TRIPOS>ATOM
      1 C         140.9349  140.8899  167.4793 C.3     1  UNL1        0.1686
      2 C         140.3276  141.5812  168.6639 C.3     1  UNL1        0.0595
      3 C         140.9090  141.3760  170.0313 C.3     1  UNL1        0.0611
      4 C         141.7823  140.8977  171.1531 C.3     1  UNL1        0.0175
      5 C         142.8192  139.9810  170.5748 C.3     1  UNL1        0.0175
      6 C         142.5867  139.8928  169.0955 C.3     1  UNL1        0.0611
      7 C         142.1236  139.9934  167.6622 C.3     1  UNL1        0.0595
      8 N         141.4061  140.7550  168.7596 N.3     1  UNL1       -0.2750
      9 O         140.3536  141.0950  166.1118 O.3     1  UNL1       -0.4791
     10 C         142.2340  143.8744  163.9933 C.ar    1  UNL1        0.0561
     11 C         141.1601  144.9148  163.8739 C.ar    1  UNL1        0.0047
     12 C         139.8173  144.6818  164.5005 C.ar    1  UNL1        0.0033
     13 C         139.5485  143.4086  165.2464 C.ar    1  UNL1        0.0369
     14 C         140.6224  142.3683  165.3658 C.ar    1  UNL1        0.1385
     15 C         141.9652  142.6011  164.7392 C.ar    1  UNL1        0.0414
     16 N         143.8813  145.4225  162.7127 N.am    1  UNL1       -0.3253
     17 C         143.5768  144.1074  163.3667 C.2     1  UNL1        0.2428
     18 O         144.6151  143.0251  163.3939 O.2     1  UNL1       -0.2704
     19 H         144.7627  145.5754  162.3015 H       1  UNL1        0.1453
     20 H         143.1999  146.1329  162.6948 H       1  UNL1        0.1453
     21 C         140.8248  140.9601  167.3922 C.3     1  UNL1        0.0720
     22 C         140.1232  139.8304  166.6983 C.3     1  UNL1        0.0160
     23 C         140.8214  139.0689  165.6108 C.3     1  UNL1        0.0014
     24 C         140.1199  137.9393  164.9169 C.3     1  UNL1        0.0000
     25 C         138.7201  137.5710  165.3104 C.3     1  UNL1        0.0000
     26 C         138.0218  138.3325  166.3980 C.3     1  UNL1        0.0000
     27 C         138.7234  139.4622  167.0918 C.3     1  UNL1        0.0014
@<TRIPOS>BOND
     1    16    17   am
     2    17    18    2
     3    17    10    1
     4    10    11   ar
     5    11    12   ar
     6    12    13   ar
     7    13    14   ar
     8    14     9    1
     9     1     9    1
    10     1     2    1
    11     3     2    1
    12     3     4    1
    13     4     5    1
    14     6     5    1
    15     6     7    1
    16     6     8    1
    17     8    21    1
    18    21    22    1
    19    22    23    1
    20    23    24    1
    21    24    25    1
    22    25    26    1
    23    26    27    1
    24    14    15   ar
    25    15    10   ar
    26     7     1    1
    27    27    22    1
    28     8     3    1
    29    16    19    1
    30    16    20    1
@<TRIPOS>MOLECULE
*****
 27 30 0 0 0
SMALL
GASTEIGER

@<TRIPOS>ATOM
      1 C         142.1648  141.4401  166.7800 C.3     1  UNL1        0.1686
      2 C         141.5242  140.1319  167.1383 C.3     1  UNL1        0.0595
      3 C         141.7019  139.5619  168.5144 C.3     1  UNL1        0.0611
      4 C         142.1311  139.3848  169.9407 C.3     1  UNL1        0.0175
      5 C         142.9733  140.5662  170.3214 C.3     1  UNL1        0.0175
      6 C         143.0646  141.4734  169.1303 C.3     1  UNL1        0.0611
      7 C         142.9830  142.1782  167.7977 C.3     1  UNL1        0.0595
      8 N         142.2788  140.8527  168.0135 N.3     1  UNL1       -0.2750
      9 O         141.9871  142.0102  165.4039 O.3     1  UNL1       -0.4791
     10 C         138.5920  142.6310  163.4450 C.ar    1  UNL1        0.0561
     11 C         138.0372  143.8004  164.2029 C.ar    1  UNL1        0.0047
     12 C         138.7990  144.3731  165.3612 C.ar    1  UNL1        0.0033
     13 C         140.1156  143.7764  165.7615 C.ar    1  UNL1        0.0369
     14 C         140.6705  142.6069  165.0036 C.ar    1  UNL1        0.1385
     15 C         139.9087  142.0342  163.8453 C.ar    1  UNL1        0.0414
     16 N         137.2288  140.6879  162.3885 N.am    1  UNL1       -0.3253
     17 C         137.8302  142.0583  162.2867 C.2     1  UNL1        0.2428
     18 O         137.6697  142.8561  161.0265 O.2     1  UNL1       -0.2704
     19 H         136.7288  140.3120  161.6283 H       1  UNL1        0.1453
     20 H         137.3341  140.1643  163.2155 H       1  UNL1        0.1453
     21 C         142.1012  141.4228  166.6375 C.3     1  UNL1        0.0720
     22 C         143.2553  141.4438  165.6796 C.3     1  UNL1        0.0160
     23 C         143.9541  142.7357  165.3754 C.3     1  UNL1        0.0014
     24 C         145.1082  142.7567  164.4175 C.3     1  UNL1        0.0000
     25 C         145.5635  141.4857  163.7638 C.3     1  UNL1        0.0000
     26 C         144.8647  140.1937  164.0680 C.3     1  UNL1        0.0000
     27 C         143.7105  140.1728  165.0259 C.3     1  UNL1        0.0014
@<TRIPOS>BOND
     1    16    17   am
     2    17    18    2
     3    17    10    1
     4    10    11   ar
     5    11    12   ar
     6    12    13   ar
     7    13    14   ar
     8    14     9    1
     9     1     9    1
    10     1     2    1
    11     3     2    1
    12     3     4    1
    13     4     5    1
    14     6     5    1
    15     6     7    1
    16     6     8    1
    17     8    21    1
    18    21    22    1
    19    22    23    1
    20    23    24    1
    21    24    25    1
    22    25    26    1
    23    26    27    1
    24    14    15   ar
    25    15    10   ar
    26     7     1    1
    27    27    22    1
    28     8     3    1
    29    16    19    1
    30    16    20    1
@<TRIPOS>MOLECULE
*****
 27 30 0 0 0
SMALL
GASTEIGER

@<TRIPOS>ATOM
      1 C         140.3137  141.4429  166.6176 C.3     1  UNL1        0.1686
      2 C         139.6153  140.2307  167.1585 C.3     1  UNL1        0.0595
      3 C         139.3252  140.1247  168.6263 C.3     1  UNL1        0.0611
      4 C         139.2467  140.4375  170.0912 C.3     1  UNL1        0.0175
      5 C         139.8857  141.7762  170.3142 C.3     1  UNL1        0.0175
      6 C         140.3591  142.2906  168.9870 C.3     1  UNL1        0.0611
      7 C         140.7221  142.5492  167.5447 C.3     1  UNL1        0.0595
      8 N         140.0127  141.2700  167.9439 N.3     1  UNL1       -0.2750
      9 O         140.6039  141.5490  165.1497 O.3     1  UNL1       -0.4791
     10 C         143.9914  142.2391  163.2009 C.ar    1  UNL1        0.0561
     11 C         144.8194  141.0714  163.6493 C.ar    1  UNL1        0.0047
     12 C         144.2421  140.0629  164.5978 C.ar    1  UNL1        0.0033
     13 C         142.8370  140.2221  165.0979 C.ar    1  UNL1        0.0369
     14 C         142.0091  141.3898  164.6496 C.ar    1  UNL1        0.1385
     15 C         142.5862  142.3982  163.7010 C.ar    1  UNL1        0.0414
     16 N         145.3435  142.7906  161.0520 N.am    1  UNL1       -0.3253
     17 C         144.5687  143.2475  162.2523 C.2     1  UNL1        0.2428
     18 O         144.3711  144.7131  162.5041 O.2     1  UNL1       -0.2704
     19 H         145.7224  143.4525  160.4294 H       1  UNL1        0.1453
     20 H         145.4732  141.8287  160.8867 H       1  UNL1        0.1453
     21 C         140.3028  141.3759  166.4760 C.3     1  UNL1        0.0720
     22 C         139.4531  142.2530  165.6050 C.3     1  UNL1        0.0160
     23 C         139.6491  143.7401  165.6195 C.3     1  UNL1        0.0014
     24 C         138.7994  144.6171  164.7485 C.3     1  UNL1        0.0000
     25 C         137.7537  144.0071  163.8629 C.3     1  UNL1        0.0000
     26 C         137.5577  142.5200  163.8482 C.3     1  UNL1        0.0000
     27 C         138.4074  141.6430  164.7193 C.3     1  UNL1        0.0014
@<TRIPOS>BOND
     1    16    17   am
     2    17    18    2
     3    17    10    1
     4    10    11   ar
     5    11    12   ar
     6    12    13   ar
     7    13    14   ar
     8    14     9    1
     9     1     9    1
    10     1     2    1
    11     3     2    1
    12     3     4    1
    13     4     5    1
    14     6     5    1
    15     6     7    1
    16     6     8    1
    17     8    21    1
    18    21    22    1
    19    22    23    1
    20    23    24    1
    21    24    25    1
    22    25    26    1
    23    26    27    1
    24    14    15   ar
    25    15    10   ar
    26     7     1    1
    27    27    22    1
    28     8     3    1
    29    16    19    1
    30    16    20    1
