@<TRIPOS>MOLECULE
*****
 26 29 0 0 0
SMALL
GASTEIGER

@<TRIPOS>ATOM
      1 C         139.2512  138.9166  165.8360 C.3     1  UNL1        0.1343
      2 C         139.5923  138.5205  164.4301 C.ar    1  UNL1        0.1615
      3 N         138.8784  137.6629  163.4277 N.ar    1  UNL1       -0.1316
      4 N         139.7057  137.6253  162.1771 N.ar    1  UNL1       -0.1268
      5 C         140.9309  138.4597  162.4065 C.ar    1  UNL1        0.1917
      6 N         140.8608  139.0130  163.7990 N.ar    1  UNL1       -0.2940
      7 C         141.7882  139.9016  164.5738 C.3     1  UNL1        0.1302
      8 C         141.4471  140.2977  165.9797 C.3     1  UNL1        0.1186
      9 N         140.1787  139.8052  166.6108 N.am    1  UNL1       -0.2688
     10 C         139.8375  140.2014  168.0169 C.2     1  UNL1        0.2494
     11 O         138.5690  139.7089  168.6480 O.2     1  UNL1       -0.2699
     12 C         140.7649  141.0900  168.7917 C.ar    1  UNL1        0.0537
     13 C         140.3911  142.5191  169.0519 C.ar    1  UNL1        0.0068
     14 C         141.3186  143.4077  169.8268 C.ar    1  UNL1        0.0298
     15 C         142.6196  142.8672  170.3413 C.ar    1  UNL1        0.1401
     16 F         143.5471  143.7557  171.1161 F       1  UNL1       -0.2042
     17 C         142.9934  141.4379  170.0810 C.ar    1  UNL1        0.0298
     18 C         142.0661  140.5493  169.3062 C.ar    1  UNL1        0.0068
     19 C         142.0327  138.6989  161.4171 C.ar    1  UNL1        0.1652
     20 N         141.9133  139.4637  160.1323 N.ar    1  UNL1       -0.2190
     21 C         143.2542  139.4527  159.4600 C.ar    1  UNL1        0.1481
     22 C         143.5883  140.0997  158.1486 C.3     1  UNL1        0.0744
     23 N         144.2023  138.6811  160.3294 N.ar    1  UNL1       -0.1929
     24 S         143.4474  138.2152  161.5389 S.2     1  UNL1        0.0369
     25 C         137.7305  136.9509  166.5934 C.3     1  UNL1        0.0022
     26 C         137.9827  138.4241  166.4673 C.3     1  UNL1        0.0276
@<TRIPOS>BOND
     1    25    26    1
     2     1    26    1
     3     1     2    1
     4     2     3   ar
     5     3     4   ar
     6     4     5   ar
     7     5    19    1
     8    19    20   ar
     9    20    21   ar
    10    21    22    1
    11    21    23   ar
    12    23    24   ar
    13     5     6   ar
    14     6     7    1
    15     7     8    1
    16     8     9    1
    17     9    10   am
    18    10    11    2
    19    10    12    1
    20    12    13   ar
    21    13    14   ar
    22    14    15   ar
    23    15    16    1
    24    15    17   ar
    25    17    18   ar
    26     9     1    1
    27    18    12   ar
    28     6     2   ar
    29    24    19   ar
@<TRIPOS>MOLECULE
*****
 26 29 0 0 0
SMALL
GASTEIGER

@<TRIPOS>ATOM
      1 C         138.8360  140.4246  165.4501 C.3     1  UNL1        0.1343
      2 C         138.6024  140.8403  164.0279 C.ar    1  UNL1        0.1615
      3 N         137.7465  140.2612  162.9407 N.ar    1  UNL1       -0.1316
      4 N         137.9160  141.1101  161.7157 N.ar    1  UNL1       -0.1268
      5 C         138.8766  142.2138  162.0458 C.ar    1  UNL1        0.1917
      6 N         139.3008  142.0471  163.4749 N.ar    1  UNL1       -0.2940
      7 C         140.2329  142.8382  164.3440 C.3     1  UNL1        0.1302
      8 C         140.4665  142.4225  165.7662 C.3     1  UNL1        0.1186
      9 N         139.7681  141.2158  166.3192 N.am    1  UNL1       -0.2688
     10 C         140.0017  140.8001  167.7415 C.2     1  UNL1        0.2494
     11 O         139.3032  139.5933  168.2945 O.2     1  UNL1       -0.2699
     12 C         140.9337  141.5912  168.6107 C.ar    1  UNL1        0.0537
     13 C         140.4321  142.8013  169.3415 C.ar    1  UNL1        0.0068
     14 C         141.3642  143.5924  170.2106 C.ar    1  UNL1        0.0298
     15 C         142.7978  143.1734  170.3490 C.ar    1  UNL1        0.1401
     16 F         143.7299  143.9644  171.2181 F       1  UNL1       -0.2042
     17 C         143.2994  141.9633  169.6181 C.ar    1  UNL1        0.0298
     18 C         142.3674  141.1722  168.7489 C.ar    1  UNL1        0.0068
     19 C         139.3329  143.2945  161.1110 C.ar    1  UNL1        0.1652
     20 N         139.5709  143.1434  159.6377 N.ar    1  UNL1       -0.2190
     21 C         140.0164  144.4717  159.1016 C.ar    1  UNL1        0.1481
     22 C         140.3636  144.7747  157.6741 C.3     1  UNL1        0.0744
     23 N         140.0536  145.4436  160.2435 N.ar    1  UNL1       -0.1929
     24 S         139.6312  144.7161  161.4853 S.2     1  UNL1        0.0369
     25 C         138.5234  137.8467  165.5329 C.3     1  UNL1        0.0022
     26 C         138.1376  139.2178  166.0032 C.3     1  UNL1        0.0276
@<TRIPOS>BOND
     1    25    26    1
     2     1    26    1
     3     1     2    1
     4     2     3   ar
     5     3     4   ar
     6     4     5   ar
     7     5    19    1
     8    19    20   ar
     9    20    21   ar
    10    21    22    1
    11    21    23   ar
    12    23    24   ar
    13     5     6   ar
    14     6     7    1
    15     7     8    1
    16     8     9    1
    17     9    10   am
    18    10    11    2
    19    10    12    1
    20    12    13   ar
    21    13    14   ar
    22    14    15   ar
    23    15    16    1
    24    15    17   ar
    25    17    18   ar
    26     9     1    1
    27    18    12   ar
    28     6     2   ar
    29    24    19   ar
@<TRIPOS>MOLECULE
*****
 26 29 0 0 0
SMALL
GASTEIGER

@<TRIPOS>ATOM
      1 C         139.0121  139.5838  165.6130 C.3     1  UNL1        0.1343
      2 C         139.0851  139.5884  164.1148 C.ar    1  UNL1        0.1615
      3 N         138.2966  138.8568  163.0693 N.ar    1  UNL1       -0.1316
      4 N         138.8215  139.2631  161.7242 N.ar    1  UNL1       -0.1268
      5 C         139.9344  140.2457  161.9383 C.ar    1  UNL1        0.1917
      6 N         140.0973  140.4468  163.4158 N.ar    1  UNL1       -0.2940
      7 C         141.0365  141.3007  164.2151 C.3     1  UNL1        0.1302
      8 C         140.9636  141.2960  165.7133 C.3     1  UNL1        0.1186
      9 N         139.9514  140.4377  166.4122 N.am    1  UNL1       -0.2688
     10 C         139.8785  140.4331  167.9105 C.2     1  UNL1        0.2494
     11 O         138.8663  139.5746  168.6095 O.2     1  UNL1       -0.2699
     12 C         140.8177  141.2869  168.7098 C.ar    1  UNL1        0.0537
     13 C         142.1905  140.7825  169.0429 C.ar    1  UNL1        0.0068
     14 C         143.1297  141.6364  169.8422 C.ar    1  UNL1        0.0298
     15 C         142.6962  142.9946  170.3082 C.ar    1  UNL1        0.1401
     16 F         143.6353  143.8486  171.1074 F       1  UNL1       -0.2042
     17 C         141.3233  143.4990  169.9750 C.ar    1  UNL1        0.0298
     18 C         140.3841  142.6452  169.1758 C.ar    1  UNL1        0.0068
     19 C         140.7424  140.9106  160.8636 C.ar    1  UNL1        0.1652
     20 N         142.2053  140.7032  160.6046 N.ar    1  UNL1       -0.2190
     21 C         142.5964  141.5641  159.4401 C.ar    1  UNL1        0.1481
     22 C         143.9678  141.6674  158.8415 C.3     1  UNL1        0.0744
     23 N         141.3753  142.3035  158.9795 N.ar    1  UNL1       -0.1929
     24 S         140.2295  141.8996  159.8593 S.2     1  UNL1        0.0369
     25 C         138.0708  137.2320  166.1902 C.3     1  UNL1        0.0022
     26 C         138.0000  138.7253  166.3121 C.3     1  UNL1        0.0276
@<TRIPOS>BOND
     1    25    26    1
     2     1    26    1
     3     1     2    1
     4     2     3   ar
     5     3     4   ar
     6     4     5   ar
     7     5    19    1
     8    19    20   ar
     9    20    21   ar
    10    21    22    1
    11    21    23   ar
    12    23    24   ar
    13     5     6   ar
    14     6     7    1
    15     7     8    1
    16     8     9    1
    17     9    10   am
    18    10    11    2
    19    10    12    1
    20    12    13   ar
    21    13    14   ar
    22    14    15   ar
    23    15    16    1
    24    15    17   ar
    25    17    18   ar
    26     9     1    1
    27    18    12   ar
    28     6     2   ar
    29    24    19   ar
@<TRIPOS>MOLECULE
*****
 26 29 0 0 0
SMALL
GASTEIGER

@<TRIPOS>ATOM
      1 C         139.1690  140.6073  164.9727 C.3     1  UNL1        0.1343
      2 C         139.1725  140.9758  163.5187 C.ar    1  UNL1        0.1615
      3 N         138.4209  140.4269  162.3424 N.ar    1  UNL1       -0.1316
      4 N         138.8368  141.1989  161.1254 N.ar    1  UNL1       -0.1268
      5 C         139.8454  142.2249  161.5496 C.ar    1  UNL1        0.1917
      6 N         140.0529  142.0871  163.0287 N.ar    1  UNL1       -0.2940
      7 C         140.9298  142.8299  163.9928 C.3     1  UNL1        0.1302
      8 C         140.9262  142.4614  165.4468 C.3     1  UNL1        0.1186
      9 N         140.0459  141.3502  165.9368 N.am    1  UNL1       -0.2688
     10 C         140.0424  140.9817  167.3909 C.2     1  UNL1        0.2494
     11 O         139.1620  139.8705  167.8808 O.2     1  UNL1       -0.2699
     12 C         140.9192  141.7245  168.3549 C.ar    1  UNL1        0.0537
     13 C         142.3584  141.3329  168.5145 C.ar    1  UNL1        0.0068
     14 C         143.2352  142.0758  169.4787 C.ar    1  UNL1        0.0298
     15 C         142.6729  143.2100  170.2831 C.ar    1  UNL1        0.1401
     16 F         143.5496  143.9529  171.2472 F       1  UNL1       -0.2042
     17 C         141.2336  143.6016  170.1234 C.ar    1  UNL1        0.0298
     18 C         140.3568  142.8588  169.1594 C.ar    1  UNL1        0.0068
     19 C         140.5269  143.2150  160.6521 C.ar    1  UNL1        0.1652
     20 N         141.0300  142.9469  159.2647 N.ar    1  UNL1       -0.2190
     21 C         141.6389  144.2132  158.7397 C.ar    1  UNL1        0.1481
     22 C         142.2648  144.3966  157.3889 C.3     1  UNL1        0.0744
     23 N         141.5121  145.2640  159.8026 N.ar    1  UNL1       -0.1929
     24 S         140.8248  144.6470  160.9845 S.2     1  UNL1        0.0369
     25 C         138.5913  138.0767  165.0836 C.3     1  UNL1        0.0022
     26 C         138.2886  139.4961  165.4628 C.3     1  UNL1        0.0276
@<TRIPOS>BOND
     1    25    26    1
     2     1    26    1
     3     1     2    1
     4     2     3   ar
     5     3     4   ar
     6     4     5   ar
     7     5    19    1
     8    19    20   ar
     9    20    21   ar
    10    21    22    1
    11    21    23   ar
    12    23    24   ar
    13     5     6   ar
    14     6     7    1
    15     7     8    1
    16     8     9    1
    17     9    10   am
    18    10    11    2
    19    10    12    1
    20    12    13   ar
    21    13    14   ar
    22    14    15   ar
    23    15    16    1
    24    15    17   ar
    25    17    18   ar
    26     9     1    1
    27    18    12   ar
    28     6     2   ar
    29    24    19   ar
@<TRIPOS>MOLECULE
*****
 26 29 0 0 0
SMALL
GASTEIGER

@<TRIPOS>ATOM
      1 C         143.3289  140.7850  162.9177 C.3     1  UNL1        0.1343
      2 C         143.3555  141.7620  161.7800 C.ar    1  UNL1        0.1615
      3 N         144.4801  142.3029  160.9476 N.ar    1  UNL1       -0.1316
      4 N         143.8987  143.2573  159.9471 N.ar    1  UNL1       -0.1268
      5 C         142.4149  143.3062  160.1610 C.ar    1  UNL1        0.1917
      6 N         142.0792  142.3821  161.2938 N.ar    1  UNL1       -0.2940
      7 C         140.7761  142.0251  161.9454 C.3     1  UNL1        0.1302
      8 C         140.7495  141.0480  163.0832 C.3     1  UNL1        0.1186
      9 N         142.0258  140.4280  163.5694 N.am    1  UNL1       -0.2688
     10 C         141.9991  139.4508  164.7072 C.2     1  UNL1        0.2494
     11 O         143.2755  138.8308  165.1934 O.2     1  UNL1       -0.2699
     12 C         140.6961  139.0938  165.3589 C.ar    1  UNL1        0.0537
     13 C         140.2195  139.8643  166.5544 C.ar    1  UNL1        0.0068
     14 C         138.9164  139.5072  167.2060 C.ar    1  UNL1        0.0298
     15 C         138.0900  138.3798  166.6621 C.ar    1  UNL1        0.1401
     16 F         136.7870  138.0227  167.3137 F       1  UNL1       -0.2042
     17 C         138.5667  137.6093  165.4666 C.ar    1  UNL1        0.0298
     18 C         139.8697  137.9663  164.8149 C.ar    1  UNL1        0.0068
     19 C         141.4382  144.1340  159.3793 C.ar    1  UNL1        0.1652
     20 N         141.0824  143.9472  157.9342 N.ar    1  UNL1       -0.2190
     21 C         140.0702  144.9917  157.5673 C.ar    1  UNL1        0.1481
     22 C         139.4386  145.1721  156.2188 C.3     1  UNL1        0.0744
     23 N         139.8004  145.8240  158.7857 N.ar    1  UNL1       -0.1929
     24 S         140.6459  145.2939  159.9056 S.2     1  UNL1        0.0369
     25 C         145.6930  141.0308  163.9669 C.3     1  UNL1        0.0022
     26 C         144.6053  140.1648  163.4040 C.3     1  UNL1        0.0276
@<TRIPOS>BOND
     1    25    26    1
     2     1    26    1
     3     1     2    1
     4     2     3   ar
     5     3     4   ar
     6     4     5   ar
     7     5    19    1
     8    19    20   ar
     9    20    21   ar
    10    21    22    1
    11    21    23   ar
    12    23    24   ar
    13     5     6   ar
    14     6     7    1
    15     7     8    1
    16     8     9    1
    17     9    10   am
    18    10    11    2
    19    10    12    1
    20    12    13   ar
    21    13    14   ar
    22    14    15   ar
    23    15    16    1
    24    15    17   ar
    25    17    18   ar
    26     9     1    1
    27    18    12   ar
    28     6     2   ar
    29    24    19   ar
@<TRIPOS>MOLECULE
*****
 26 29 0 0 0
SMALL
GASTEIGER

@<TRIPOS>ATOM
      1 C         140.2347  142.9866  164.6594 C.3     1  UNL1        0.1343
      2 C         140.4358  142.6726  163.2065 C.ar    1  UNL1        0.1615
      3 N         139.8637  143.2797  161.9599 N.ar    1  UNL1       -0.1316
      4 N         140.4342  142.5457  160.7828 N.ar    1  UNL1       -0.1268
      5 C         141.3590  141.4849  161.3019 C.ar    1  UNL1        0.1917
      6 N         141.3600  141.5633  162.7999 N.ar    1  UNL1       -0.2940
      7 C         142.0831  140.7680  163.8461 C.3     1  UNL1        0.1302
      8 C         141.8819  141.0820  165.2990 C.3     1  UNL1        0.1186
      9 N         140.9578  142.1912  165.7057 N.am    1  UNL1       -0.2688
     10 C         140.7567  142.5052  167.1587 C.2     1  UNL1        0.2494
     11 O         139.8325  143.6145  167.5653 O.2     1  UNL1       -0.2699
     12 C         141.4797  141.7098  168.2049 C.ar    1  UNL1        0.0537
     13 C         142.7520  142.2356  168.8006 C.ar    1  UNL1        0.0068
     14 C         143.4751  141.4402  169.8468 C.ar    1  UNL1        0.0298
     15 C         142.9258  140.1192  170.2974 C.ar    1  UNL1        0.1401
     16 F         143.6488  139.3238  171.3437 F       1  UNL1       -0.2042
     17 C         141.6534  139.5934  169.7018 C.ar    1  UNL1        0.0298
     18 C         140.9304  140.3887  168.6555 C.ar    1  UNL1        0.0068
     19 C         142.1448  140.5158  160.4693 C.ar    1  UNL1        0.1652
     20 N         141.5787  139.5487  159.4721 N.ar    1  UNL1       -0.2190
     21 C         142.7188  138.7789  158.8742 C.ar    1  UNL1        0.1481
     22 C         142.6076  137.7061  157.8317 C.3     1  UNL1        0.0744
     23 N         143.9895  139.2701  159.5017 N.ar    1  UNL1       -0.1929
     24 S         143.6348  140.3436  160.4875 S.2     1  UNL1        0.0369
     25 C         137.8697  144.0620  164.6506 C.3     1  UNL1        0.0022
     26 C         139.3105  144.0959  165.0662 C.3     1  UNL1        0.0276
@<TRIPOS>BOND
     1    25    26    1
     2     1    26    1
     3     1     2    1
     4     2     3   ar
     5     3     4   ar
     6     4     5   ar
     7     5    19    1
     8    19    20   ar
     9    20    21   ar
    10    21    22    1
    11    21    23   ar
    12    23    24   ar
    13     5     6   ar
    14     6     7    1
    15     7     8    1
    16     8     9    1
    17     9    10   am
    18    10    11    2
    19    10    12    1
    20    12    13   ar
    21    13    14   ar
    22    14    15   ar
    23    15    16    1
    24    15    17   ar
    25    17    18   ar
    26     9     1    1
    27    18    12   ar
    28     6     2   ar
    29    24    19   ar
@<TRIPOS>MOLECULE
*****
 26 29 0 0 0
SMALL
GASTEIGER

@<TRIPOS>ATOM
      1 C         141.4999  143.1643  162.4445 C.3     1  UNL1        0.1343
      2 C         141.2558  143.7183  161.0721 C.ar    1  UNL1        0.1615
      3 N         141.8750  144.8639  160.3275 N.ar    1  UNL1       -0.1316
      4 N         141.2237  144.9460  158.9787 N.ar    1  UNL1       -0.1268
      5 C         140.2021  143.8512  158.8898 C.ar    1  UNL1        0.1917
      6 N         140.2220  143.0925  160.1836 N.ar    1  UNL1       -0.2940
      7 C         139.4323  141.9126  160.6674 C.3     1  UNL1        0.1302
      8 C         139.6764  141.3585  162.0398 C.3     1  UNL1        0.1186
      9 N         140.7101  141.9843  162.9283 N.am    1  UNL1       -0.2688
     10 C         140.9542  141.4302  164.3007 C.2     1  UNL1        0.2494
     11 O         141.9881  142.0561  165.1893 O.2     1  UNL1       -0.2699
     12 C         140.1645  140.2503  164.7846 C.ar    1  UNL1        0.0537
     13 C         140.6070  138.8593  164.4395 C.ar    1  UNL1        0.0068
     14 C         139.8171  137.6793  164.9234 C.ar    1  UNL1        0.0298
     15 C         138.5850  137.8905  165.7523 C.ar    1  UNL1        0.1401
     16 F         137.7952  136.7107  166.2362 F       1  UNL1       -0.2042
     17 C         138.1425  139.2817  166.0973 C.ar    1  UNL1        0.0298
     18 C         138.9323  140.4616  165.6135 C.ar    1  UNL1        0.0068
     19 C         139.3163  143.5654  157.7135 C.ar    1  UNL1        0.1652
     20 N         138.1263  142.6522  157.7072 N.ar    1  UNL1       -0.2190
     21 C         137.5395  142.6651  156.3268 C.ar    1  UNL1        0.1481
     22 C         136.3365  141.8924  155.8730 C.3     1  UNL1        0.0744
     23 N         138.3667  143.5862  155.4800 N.ar    1  UNL1       -0.1929
     24 S         139.4649  144.1426  156.3370 S.2     1  UNL1        0.0369
     25 C         142.3746  145.2122  163.7829 C.3     1  UNL1        0.0022
     26 C         142.5338  143.7901  163.3331 C.3     1  UNL1        0.0276
@<TRIPOS>BOND
     1    25    26    1
     2     1    26    1
     3     1     2    1
     4     2     3   ar
     5     3     4   ar
     6     4     5   ar
     7     5    19    1
     8    19    20   ar
     9    20    21   ar
    10    21    22    1
    11    21    23   ar
    12    23    24   ar
    13     5     6   ar
    14     6     7    1
    15     7     8    1
    16     8     9    1
    17     9    10   am
    18    10    11    2
    19    10    12    1
    20    12    13   ar
    21    13    14   ar
    22    14    15   ar
    23    15    16    1
    24    15    17   ar
    25    17    18   ar
    26     9     1    1
    27    18    12   ar
    28     6     2   ar
    29    24    19   ar
@<TRIPOS>MOLECULE
*****
 26 29 0 0 0
SMALL
GASTEIGER

@<TRIPOS>ATOM
      1 C         143.0053  139.5178  161.5017 C.3     1  UNL1        0.1343
      2 C         143.0171  139.2087  160.0340 C.ar    1  UNL1        0.1615
      3 N         144.0566  139.4169  158.9728 N.ar    1  UNL1       -0.1316
      4 N         143.5028  138.9074  157.6753 N.ar    1  UNL1       -0.1268
      5 C         142.1211  138.3842  157.9345 C.ar    1  UNL1        0.1917
      6 N         141.8209  138.5704  159.3923 N.ar    1  UNL1       -0.2940
      7 C         140.6129  138.2413  160.2184 C.3     1  UNL1        0.1302
      8 C         140.6011  138.5504  161.6861 C.3     1  UNL1        0.1186
      9 N         141.7972  139.1886  162.3278 N.am    1  UNL1       -0.2688
     10 C         141.7853  139.4978  163.7956 C.2     1  UNL1        0.2494
     11 O         142.9815  140.1361  164.4373 O.2     1  UNL1       -0.2699
     12 C         140.5773  139.1686  164.6216 C.ar    1  UNL1        0.0537
     13 C         140.1075  137.7483  164.7304 C.ar    1  UNL1        0.0068
     14 C         138.8994  137.4192  165.5565 C.ar    1  UNL1        0.0298
     15 C         138.1613  138.5103  166.2737 C.ar    1  UNL1        0.1401
     16 F         136.9533  138.1813  167.0998 F       1  UNL1       -0.2042
     17 C         138.6312  139.9307  166.1649 C.ar    1  UNL1        0.0298
     18 C         139.8392  140.2599  165.3389 C.ar    1  UNL1        0.0068
     19 C         141.2012  137.7807  156.9149 C.ar    1  UNL1        0.1652
     20 N         139.9047  138.3673  156.4403 N.ar    1  UNL1       -0.2190
     21 C         139.3185  137.4338  155.4230 C.ar    1  UNL1        0.1481
     22 C         138.0252  137.6294  154.6888 C.3     1  UNL1        0.0744
     23 N         140.2526  136.2703  155.2689 N.ar    1  UNL1       -0.1929
     24 S         141.4161  136.4847  156.1909 S.2     1  UNL1        0.0369
     25 C         144.6013  141.5510  161.7638 C.3     1  UNL1        0.0022
     26 C         144.2014  140.1561  162.1435 C.3     1  UNL1        0.0276
@<TRIPOS>BOND
     1    25    26    1
     2     1    26    1
     3     1     2    1
     4     2     3   ar
     5     3     4   ar
     6     4     5   ar
     7     5    19    1
     8    19    20   ar
     9    20    21   ar
    10    21    22    1
    11    21    23   ar
    12    23    24   ar
    13     5     6   ar
    14     6     7    1
    15     7     8    1
    16     8     9    1
    17     9    10   am
    18    10    11    2
    19    10    12    1
    20    12    13   ar
    21    13    14   ar
    22    14    15   ar
    23    15    16    1
    24    15    17   ar
    25    17    18   ar
    26     9     1    1
    27    18    12   ar
    28     6     2   ar
    29    24    19   ar
@<TRIPOS>MOLECULE
*****
 26 29 0 0 0
SMALL
GASTEIGER

@<TRIPOS>ATOM
      1 C         139.5654  139.0358  165.5128 C.3     1  UNL1        0.1343
      2 C         139.7336  139.6373  166.8766 C.ar    1  UNL1        0.1615
      3 N         138.9211  139.5208  168.1321 N.ar    1  UNL1       -0.1316
      4 N         139.5810  140.3543  169.1902 N.ar    1  UNL1       -0.1268
      5 C         140.8014  140.9859  168.5888 C.ar    1  UNL1        0.1917
      6 N         140.8957  140.5428  167.1588 N.ar    1  UNL1       -0.2940
      7 C         141.8896  140.8469  166.0773 C.3     1  UNL1        0.1302
      8 C         141.7214  140.2454  164.7135 C.3     1  UNL1        0.1186
      9 N         140.5594  139.3399  164.4313 N.am    1  UNL1       -0.2688
     10 C         140.3912  138.7384  163.0674 C.2     1  UNL1        0.2494
     11 O         139.2292  137.8329  162.7852 O.2     1  UNL1       -0.2699
     12 C         141.3851  139.0424  161.9859 C.ar    1  UNL1        0.0537
     13 C         141.1588  140.2041  161.0643 C.ar    1  UNL1        0.0068
     14 C         142.1528  140.5081  159.9828 C.ar    1  UNL1        0.0298
     15 C         143.3729  139.6505  159.8228 C.ar    1  UNL1        0.1401
     16 F         144.3669  139.9544  158.7413 F       1  UNL1       -0.2042
     17 C         143.5992  138.4887  160.7444 C.ar    1  UNL1        0.0298
     18 C         142.6053  138.1847  161.8259 C.ar    1  UNL1        0.0068
     19 C         141.7592  141.9002  169.2935 C.ar    1  UNL1        0.1652
     20 N         143.2548  141.7853  169.2865 N.ar    1  UNL1       -0.2190
     21 C         143.8095  142.9040  170.1177 C.ar    1  UNL1        0.1481
     22 C         145.2620  143.1697  170.3818 C.3     1  UNL1        0.0744
     23 N         142.6568  143.7103  170.6384 N.ar    1  UNL1       -0.1929
     24 S         141.3897  143.0899  170.1291 S.2     1  UNL1        0.0369
     25 C         138.0783  137.0108  166.1743 C.3     1  UNL1        0.0022
     26 C         138.4034  138.1303  165.2305 C.3     1  UNL1        0.0276
@<TRIPOS>BOND
     1    25    26    1
     2     1    26    1
     3     1     2    1
     4     2     3   ar
     5     3     4   ar
     6     4     5   ar
     7     5    19    1
     8    19    20   ar
     9    20    21   ar
    10    21    22    1
    11    21    23   ar
    12    23    24   ar
    13     5     6   ar
    14     6     7    1
    15     7     8    1
    16     8     9    1
    17     9    10   am
    18    10    11    2
    19    10    12    1
    20    12    13   ar
    21    13    14   ar
    22    14    15   ar
    23    15    16    1
    24    15    17   ar
    25    17    18   ar
    26     9     1    1
    27    18    12   ar
    28     6     2   ar
    29    24    19   ar
