@<TRIPOS>MOLECULE
*****
 23 25 0 0 0
SMALL
GASTEIGER

@<TRIPOS>ATOM
      1 C         137.6693  138.5604  166.8344 C.3     1  UNL1        0.0522
      2 C         138.8856  138.5711  165.9566 C.ar    1  UNL1        0.0629
      3 C         139.1698  137.6198  164.8322 C.ar    1  UNL1        0.0420
      4 C         140.4911  137.9957  164.2298 C.ar    1  UNL1        0.1279
      5 N         141.0235  139.1794  164.9819 N.ar    1  UNL1       -0.1591
      6 N         140.0313  139.5350  166.0492 N.ar    1  UNL1       -0.2332
      7 C         140.1618  140.6573  167.0357 C.ar    1  UNL1        0.0833
      8 C         140.1503  142.0796  166.5594 C.ar    1  UNL1        0.0201
      9 C         140.2808  143.2020  167.5459 C.ar    1  UNL1        0.0138
     10 C         140.4227  142.9020  169.0088 C.ar    1  UNL1        0.0683
     11 CL        140.5532  144.0244  169.9953 Cl      1  UNL1       -0.0814
     12 C         140.4342  141.4797  169.4851 C.ar    1  UNL1        0.0697
     13 CL        140.5762  141.1798  170.9479 Cl      1  UNL1       -0.0813
     14 C         140.3037  140.3574  168.4986 C.ar    1  UNL1        0.0314
     15 S         141.1622  137.3087  163.0776 S.3     1  UNL1       -0.0918
     16 C         141.9408  138.1101  162.0768 C.3     1  UNL1        0.0810
     17 C         143.4369  138.1707  162.1652 C.3     1  UNL1        0.0844
     18 N         144.1202  139.4798  162.4289 N.3     1  UNL1       -0.2677
     19 C         144.8128  139.7139  163.7386 C.3     1  UNL1        0.1046
     20 C         145.4961  141.0229  164.0022 C.3     1  UNL1        0.1595
     21 O         145.4868  142.0978  162.9561 O.3     1  UNL1       -0.3508
     22 C         144.7943  141.8637  161.6463 C.3     1  UNL1        0.1595
     23 C         144.1110  140.5547  161.3827 C.3     1  UNL1        0.1046
@<TRIPOS>BOND
     1     1     2    1
     2     2     3   ar
     3     3     4   ar
     4     4    15    1
     5    15    16    1
     6    16    17    1
     7    17    18    1
     8    18    19    1
     9    19    20    1
    10    20    21    1
    11    21    22    1
    12    22    23    1
    13     4     5   ar
    14     5     6   ar
    15     6     7    1
    16     7     8   ar
    17     8     9   ar
    18     9    10   ar
    19    10    11    1
    20    10    12   ar
    21    12    13    1
    22    12    14   ar
    23     6     2   ar
    24    14     7   ar
    25    23    18    1
@<TRIPOS>MOLECULE
*****
 23 25 0 0 0
SMALL
GASTEIGER

@<TRIPOS>ATOM
      1 C         138.9044  137.9733  164.8868 C.3     1  UNL1        0.0522
      2 C         138.8546  139.4646  164.7332 C.ar    1  UNL1        0.0629
      3 C         138.1197  140.2167  163.6635 C.ar    1  UNL1        0.0420
      4 C         138.3418  141.6825  163.8915 C.ar    1  UNL1        0.1279
      5 N         139.2141  141.8363  165.1022 N.ar    1  UNL1       -0.1591
      6 N         139.5310  140.4656  165.6224 N.ar    1  UNL1       -0.2332
      7 C         140.3759  140.1510  166.8211 C.ar    1  UNL1        0.0833
      8 C         141.8052  139.7326  166.6423 C.ar    1  UNL1        0.0201
      9 C         142.6502  139.4181  167.8411 C.ar    1  UNL1        0.0138
     10 C         142.0658  139.5220  169.2187 C.ar    1  UNL1        0.0683
     11 CL        142.9107  139.2075  170.4175 Cl      1  UNL1       -0.0814
     12 C         140.6365  139.9404  169.3975 C.ar    1  UNL1        0.0697
     13 CL        140.0521  140.0444  170.7751 Cl      1  UNL1       -0.0813
     14 C         139.7916  140.2550  168.1987 C.ar    1  UNL1        0.0314
     15 S         137.7888  142.7985  163.0557 S.3     1  UNL1       -0.0918
     16 C         138.0125  144.2241  163.4653 C.3     1  UNL1        0.0810
     17 C         138.8170  145.1386  162.5897 C.3     1  UNL1        0.0844
     18 N         140.2701  144.8571  162.3460 N.3     1  UNL1       -0.2677
     19 C         141.2790  145.1391  163.4195 C.3     1  UNL1        0.1046
     20 C         142.7320  144.8577  163.1757 C.3     1  UNL1        0.1595
     21 O         143.1761  144.2942  161.8584 O.3     1  UNL1       -0.3508
     22 C         142.1671  144.0121  160.7849 C.3     1  UNL1        0.1595
     23 C         140.7141  144.2936  161.0287 C.3     1  UNL1        0.1046
@<TRIPOS>BOND
     1     1     2    1
     2     2     3   ar
     3     3     4   ar
     4     4    15    1
     5    15    16    1
     6    16    17    1
     7    17    18    1
     8    18    19    1
     9    19    20    1
    10    20    21    1
    11    21    22    1
    12    22    23    1
    13     4     5   ar
    14     5     6   ar
    15     6     7    1
    16     7     8   ar
    17     8     9   ar
    18     9    10   ar
    19    10    11    1
    20    10    12   ar
    21    12    13    1
    22    12    14   ar
    23     6     2   ar
    24    14     7   ar
    25    23    18    1
@<TRIPOS>MOLECULE
*****
 23 25 0 0 0
SMALL
GASTEIGER

@<TRIPOS>ATOM
      1 C         138.5826  144.8240  165.4160 C.3     1  UNL1        0.0522
      2 C         139.8768  144.3124  164.8563 C.ar    1  UNL1        0.0629
      3 C         140.5742  144.8296  163.6332 C.ar    1  UNL1        0.0420
      4 C         141.8292  144.0305  163.4424 C.ar    1  UNL1        0.1279
      5 N         141.9075  143.0195  164.5477 N.ar    1  UNL1       -0.1591
      6 N         140.7009  143.1936  165.4216 N.ar    1  UNL1       -0.2332
      7 C         140.3754  142.3901  166.6457 C.ar    1  UNL1        0.0833
      8 C         139.9264  140.9653  166.5101 C.ar    1  UNL1        0.0201
      9 C         139.6009  140.1619  167.7342 C.ar    1  UNL1        0.0138
     10 C         139.7244  140.7832  169.0939 C.ar    1  UNL1        0.0683
     11 CL        139.3989  139.9798  170.3180 Cl      1  UNL1       -0.0814
     12 C         140.1734  142.2080  169.2295 C.ar    1  UNL1        0.0697
     13 CL        140.2968  142.8293  170.5892 Cl      1  UNL1       -0.0813
     14 C         140.4988  143.0115  168.0054 C.ar    1  UNL1        0.0314
     15 S         142.8302  144.2109  162.3400 S.3     1  UNL1       -0.0918
     16 C         144.2539  143.7837  162.5422 C.3     1  UNL1        0.0810
     17 C         144.8424  142.7045  161.6826 C.3     1  UNL1        0.0844
     18 N         144.5256  141.2654  161.9636 N.3     1  UNL1       -0.2677
     19 C         144.7352  140.7062  163.3396 C.3     1  UNL1        0.1046
     20 C         144.4185  139.2673  163.6206 C.3     1  UNL1        0.1595
     21 O         143.8922  138.3875  162.5256 O.3     1  UNL1       -0.3508
     22 C         143.6827  138.9467  161.1496 C.3     1  UNL1        0.1595
     23 C         143.9994  140.3856  160.8686 C.3     1  UNL1        0.1046
@<TRIPOS>BOND
     1     1     2    1
     2     2     3   ar
     3     3     4   ar
     4     4    15    1
     5    15    16    1
     6    16    17    1
     7    17    18    1
     8    18    19    1
     9    19    20    1
    10    20    21    1
    11    21    22    1
    12    22    23    1
    13     4     5   ar
    14     5     6   ar
    15     6     7    1
    16     7     8   ar
    17     8     9   ar
    18     9    10   ar
    19    10    11    1
    20    10    12   ar
    21    12    13    1
    22    12    14   ar
    23     6     2   ar
    24    14     7   ar
    25    23    18    1
@<TRIPOS>MOLECULE
*****
 23 25 0 0 0
SMALL
GASTEIGER

@<TRIPOS>ATOM
      1 C         138.6883  144.7622  165.4240 C.3     1  UNL1        0.0522
      2 C         138.9458  143.5617  164.5624 C.ar    1  UNL1        0.0629
      3 C         138.2237  143.2155  163.2940 C.ar    1  UNL1        0.0420
      4 C         138.8023  141.9365  162.7656 C.ar    1  UNL1        0.1279
      5 N         139.8820  141.4921  163.7073 N.ar    1  UNL1       -0.1591
      6 N         139.9707  142.4966  164.8178 N.ar    1  UNL1       -0.2332
      7 C         140.9179  142.4450  165.9798 C.ar    1  UNL1        0.0833
      8 C         142.3975  142.5200  165.7451 C.ar    1  UNL1        0.0201
      9 C         143.3447  142.4684  166.9070 C.ar    1  UNL1        0.0138
     10 C         142.8123  142.3418  168.3036 C.ar    1  UNL1        0.0683
     11 CL        143.7595  142.2902  169.4656 Cl      1  UNL1       -0.0814
     12 C         141.3327  142.2668  168.5383 C.ar    1  UNL1        0.0697
     13 CL        140.8003  142.1402  169.9350 Cl      1  UNL1       -0.0813
     14 C         140.3855  142.3184  167.3764 C.ar    1  UNL1        0.0314
     15 S         138.3761  141.2264  161.5149 S.3     1  UNL1       -0.0918
     16 C         137.4838  140.0238  161.6023 C.3     1  UNL1        0.0810
     17 C         138.0685  138.6467  161.4950 C.3     1  UNL1        0.0844
     18 N         139.1613  138.2209  162.4302 N.3     1  UNL1       -0.2677
     19 C         140.5510  138.0022  161.9098 C.3     1  UNL1        0.1046
     20 C         141.6436  137.5764  162.8451 C.3     1  UNL1        0.1595
     21 O         141.3466  137.3693  164.3007 O.3     1  UNL1       -0.3508
     22 C         139.9569  137.5880  164.8211 C.3     1  UNL1        0.1595
     23 C         138.8642  138.0137  163.8859 C.3     1  UNL1        0.1046
@<TRIPOS>BOND
     1     1     2    1
     2     2     3   ar
     3     3     4   ar
     4     4    15    1
     5    15    16    1
     6    16    17    1
     7    17    18    1
     8    18    19    1
     9    19    20    1
    10    20    21    1
    11    21    22    1
    12    22    23    1
    13     4     5   ar
    14     5     6   ar
    15     6     7    1
    16     7     8   ar
    17     8     9   ar
    18     9    10   ar
    19    10    11    1
    20    10    12   ar
    21    12    13    1
    22    12    14   ar
    23     6     2   ar
    24    14     7   ar
    25    23    18    1
@<TRIPOS>MOLECULE
*****
 23 25 0 0 0
SMALL
GASTEIGER

@<TRIPOS>ATOM
      1 C         143.7668  144.5242  164.1450 C.3     1  UNL1        0.0522
      2 C         143.6445  143.0604  163.8410 C.ar    1  UNL1        0.0629
      3 C         144.1219  142.3758  162.5947 C.ar    1  UNL1        0.0420
      4 C         143.7957  140.9165  162.7134 C.ar    1  UNL1        0.1279
      5 N         143.1167  140.6992  164.0332 N.ar    1  UNL1       -0.1591
      6 N         143.0232  142.0242  164.7301 N.ar    1  UNL1       -0.2332
      7 C         142.4153  142.2698  166.0792 C.ar    1  UNL1        0.0833
      8 C         140.9559  142.5964  166.1959 C.ar    1  UNL1        0.0201
      9 C         140.3480  142.8421  167.5450 C.ar    1  UNL1        0.0138
     10 C         141.1994  142.7611  168.7773 C.ar    1  UNL1        0.0683
     11 CL        140.5914  143.0068  170.1264 Cl      1  UNL1       -0.0814
     12 C         142.6587  142.4345  168.6606 C.ar    1  UNL1        0.0697
     13 CL        143.5101  142.3536  169.8929 Cl      1  UNL1       -0.0813
     14 C         143.2667  142.1889  167.3115 C.ar    1  UNL1        0.0314
     15 S         144.0958  139.8601  161.6918 S.3     1  UNL1       -0.0918
     16 C         143.7303  138.4305  161.9615 C.3     1  UNL1        0.0810
     17 C         142.4422  137.8730  161.4323 C.3     1  UNL1        0.0844
     18 N         141.2350  137.8017  162.3198 N.3     1  UNL1       -0.2677
     19 C         141.3982  137.5471  163.7889 C.3     1  UNL1        0.1046
     20 C         140.1910  137.4757  164.6763 C.3     1  UNL1        0.1595
     21 O         138.8206  137.6591  164.0946 O.3     1  UNL1       -0.3508
     22 C         138.6574  137.9137  162.6254 C.3     1  UNL1        0.1595
     23 C         139.8646  137.9850  161.7380 C.3     1  UNL1        0.1046
@<TRIPOS>BOND
     1     1     2    1
     2     2     3   ar
     3     3     4   ar
     4     4    15    1
     5    15    16    1
     6    16    17    1
     7    17    18    1
     8    18    19    1
     9    19    20    1
    10    20    21    1
    11    21    22    1
    12    22    23    1
    13     4     5   ar
    14     5     6   ar
    15     6     7    1
    16     7     8   ar
    17     8     9   ar
    18     9    10   ar
    19    10    11    1
    20    10    12   ar
    21    12    13    1
    22    12    14   ar
    23     6     2   ar
    24    14     7   ar
    25    23    18    1
@<TRIPOS>MOLECULE
*****
 23 25 0 0 0
SMALL
GASTEIGER

@<TRIPOS>ATOM
      1 C         143.3364  142.8964  165.3565 C.3     1  UNL1        0.0522
      2 C         141.8710  143.0431  165.0717 C.ar    1  UNL1        0.0629
      3 C         141.2644  143.4649  163.7663 C.ar    1  UNL1        0.0420
      4 C         139.7735  143.4762  163.9301 C.ar    1  UNL1        0.1279
      5 N         139.4586  143.0614  165.3368 N.ar    1  UNL1       -0.1591
      6 N         140.7549  142.7937  166.0424 N.ar    1  UNL1       -0.2332
      7 C         140.9083  142.3538  167.4682 C.ar    1  UNL1        0.0833
      8 C         140.4365  143.2413  168.5817 C.ar    1  UNL1        0.0201
      9 C         140.5898  142.8014  170.0075 C.ar    1  UNL1        0.0138
     10 C         141.2150  141.4741  170.3198 C.ar    1  UNL1        0.0683
     11 CL        141.3683  141.0343  171.7457 Cl      1  UNL1       -0.0814
     12 C         141.6867  140.5867  169.2064 C.ar    1  UNL1        0.0697
     13 CL        142.3118  139.2594  169.5187 Cl      1  UNL1       -0.0813
     14 C         141.5334  141.0265  167.7805 C.ar    1  UNL1        0.0314
     15 S         138.7731  143.8387  162.8729 S.3     1  UNL1       -0.0918
     16 C         137.9821  142.7634  162.1885 C.3     1  UNL1        0.0810
     17 C         137.2995  141.7027  163.0002 C.3     1  UNL1        0.0844
     18 N         137.8364  140.3021  163.0075 N.3     1  UNL1       -0.2677
     19 C         138.4076  139.7244  164.2684 C.3     1  UNL1        0.1046
     20 C         138.9445  138.3238  164.2757 C.3     1  UNL1        0.1595
     21 O         138.9103  137.5010  163.0220 O.3     1  UNL1       -0.3508
     22 C         138.3391  138.0786  161.7611 C.3     1  UNL1        0.1595
     23 C         137.8022  139.4792  161.7538 C.3     1  UNL1        0.1046
@<TRIPOS>BOND
     1     1     2    1
     2     2     3   ar
     3     3     4   ar
     4     4    15    1
     5    15    16    1
     6    16    17    1
     7    17    18    1
     8    18    19    1
     9    19    20    1
    10    20    21    1
    11    21    22    1
    12    22    23    1
    13     4     5   ar
    14     5     6   ar
    15     6     7    1
    16     7     8   ar
    17     8     9   ar
    18     9    10   ar
    19    10    11    1
    20    10    12   ar
    21    12    13    1
    22    12    14   ar
    23     6     2   ar
    24    14     7   ar
    25    23    18    1
@<TRIPOS>MOLECULE
*****
 23 25 0 0 0
SMALL
GASTEIGER

@<TRIPOS>ATOM
      1 C         144.4318  139.1429  164.9831 C.3     1  UNL1        0.0522
      2 C         142.9877  139.0220  164.5958 C.ar    1  UNL1        0.0629
      3 C         142.4587  138.3502  163.3634 C.ar    1  UNL1        0.0420
      4 C         140.9631  138.4647  163.3788 C.ar    1  UNL1        0.1279
      5 N         140.5679  139.2073  164.6207 N.ar    1  UNL1       -0.1591
      6 N         141.8191  139.5517  165.3729 N.ar    1  UNL1       -0.2332
      7 C         141.8894  140.2953  166.6737 C.ar    1  UNL1        0.0833
      8 C         141.4945  141.7411  166.7334 C.ar    1  UNL1        0.0201
      9 C         141.5648  142.4847  168.0342 C.ar    1  UNL1        0.0138
     10 C         142.0300  141.7824  169.2753 C.ar    1  UNL1        0.0683
     11 CL        142.1003  142.5260  170.5761 Cl      1  UNL1       -0.0814
     12 C         142.4249  140.3366  169.2156 C.ar    1  UNL1        0.0697
     13 CL        142.8901  139.6343  170.4568 Cl      1  UNL1       -0.0813
     14 C         142.3546  139.5930  167.9148 C.ar    1  UNL1        0.0314
     15 S         140.0272  137.9304  162.3354 S.3     1  UNL1       -0.0918
     16 C         138.5457  137.9664  162.5677 C.3     1  UNL1        0.0810
     17 C         137.6632  138.7688  161.6582 C.3     1  UNL1        0.0844
     18 N         137.8222  140.2585  161.5814 N.3     1  UNL1       -0.2677
     19 C         137.4977  141.1098  162.7729 C.3     1  UNL1        0.1046
     20 C         137.6567  142.5994  162.6960 C.3     1  UNL1        0.1595
     21 O         138.1401  143.2375  161.4275 O.3     1  UNL1       -0.3508
     22 C         138.4646  142.3862  160.2360 C.3     1  UNL1        0.1595
     23 C         138.3056  140.8966  160.3129 C.3     1  UNL1        0.1046
@<TRIPOS>BOND
     1     1     2    1
     2     2     3   ar
     3     3     4   ar
     4     4    15    1
     5    15    16    1
     6    16    17    1
     7    17    18    1
     8    18    19    1
     9    19    20    1
    10    20    21    1
    11    21    22    1
    12    22    23    1
    13     4     5   ar
    14     5     6   ar
    15     6     7    1
    16     7     8   ar
    17     8     9   ar
    18     9    10   ar
    19    10    11    1
    20    10    12   ar
    21    12    13    1
    22    12    14   ar
    23     6     2   ar
    24    14     7   ar
    25    23    18    1
@<TRIPOS>MOLECULE
*****
 23 25 0 0 0
SMALL
GASTEIGER

@<TRIPOS>ATOM
      1 C         143.2854  138.6889  165.8304 C.3     1  UNL1        0.0522
      2 C         141.9981  138.7439  165.0624 C.ar    1  UNL1        0.0629
      3 C         141.7111  138.0371  163.7708 C.ar    1  UNL1        0.0420
      4 C         140.3074  138.3717  163.3613 C.ar    1  UNL1        0.1279
      5 N         139.7268  139.2852  164.3999 N.ar    1  UNL1       -0.1591
      6 N         140.7717  139.5152  165.4512 N.ar    1  UNL1       -0.2332
      7 C         140.6174  140.3670  166.6762 C.ar    1  UNL1        0.0833
      8 C         141.3537  141.6696  166.7815 C.ar    1  UNL1        0.0201
      9 C         141.1994  142.5213  168.0065 C.ar    1  UNL1        0.0138
     10 C         140.3087  142.0706  169.1261 C.ar    1  UNL1        0.0683
     11 CL        140.1544  142.9224  170.3511 Cl      1  UNL1       -0.0814
     12 C         139.5723  140.7680  169.0207 C.ar    1  UNL1        0.0697
     13 CL        138.6816  140.3173  170.1404 Cl      1  UNL1       -0.0813
     14 C         139.7267  139.9162  167.7958 C.ar    1  UNL1        0.0314
     15 S         139.6072  137.8792  162.1296 S.3     1  UNL1       -0.0918
     16 C         139.1045  138.8584  161.1105 C.3     1  UNL1        0.0810
     17 C         137.9256  139.7304  161.4259 C.3     1  UNL1        0.0844
     18 N         138.1340  141.1705  161.7903 N.3     1  UNL1       -0.2677
     19 C         139.0513  142.0269  160.9686 C.3     1  UNL1        0.1046
     20 C         139.2596  143.4669  161.3330 C.3     1  UNL1        0.1595
     21 O         138.5508  144.0506  162.5191 O.3     1  UNL1       -0.3508
     22 C         137.6335  143.1942  163.3408 C.3     1  UNL1        0.1595
     23 C         137.4251  141.7542  162.9764 C.3     1  UNL1        0.1046
@<TRIPOS>BOND
     1     1     2    1
     2     2     3   ar
     3     3     4   ar
     4     4    15    1
     5    15    16    1
     6    16    17    1
     7    17    18    1
     8    18    19    1
     9    19    20    1
    10    20    21    1
    11    21    22    1
    12    22    23    1
    13     4     5   ar
    14     5     6   ar
    15     6     7    1
    16     7     8   ar
    17     8     9   ar
    18     9    10   ar
    19    10    11    1
    20    10    12   ar
    21    12    13    1
    22    12    14   ar
    23     6     2   ar
    24    14     7   ar
    25    23    18    1
@<TRIPOS>MOLECULE
*****
 23 25 0 0 0
SMALL
GASTEIGER

@<TRIPOS>ATOM
      1 C         138.2247  139.1752  164.8326 C.3     1  UNL1        0.0522
      2 C         138.4953  140.6506  164.8372 C.ar    1  UNL1        0.0629
      3 C         137.8703  141.6645  163.9254 C.ar    1  UNL1        0.0420
      4 C         138.4271  143.0116  164.2791 C.ar    1  UNL1        0.1279
      5 N         139.3961  142.8304  165.4096 N.ar    1  UNL1       -0.1591
      6 N         139.4383  141.3712  165.7546 N.ar    1  UNL1       -0.2332
      7 C         140.2764  140.7429  166.8283 C.ar    1  UNL1        0.0833
      8 C         139.9112  140.9308  168.2710 C.ar    1  UNL1        0.0201
      9 C         140.7492  140.3025  169.3447 C.ar    1  UNL1        0.0138
     10 C         141.9525  139.4864  168.9758 C.ar    1  UNL1        0.0683
     11 CL        142.7905  138.8581  170.0495 Cl      1  UNL1       -0.0814
     12 C         142.3177  139.2985  167.5331 C.ar    1  UNL1        0.0697
     13 CL        143.5210  138.4824  167.1642 Cl      1  UNL1       -0.0813
     14 C         141.4797  139.9268  166.4594 C.ar    1  UNL1        0.0314
     15 S         138.0763  144.3117  163.6184 S.3     1  UNL1       -0.0918
     16 C         139.1245  145.0782  162.8673 C.3     1  UNL1        0.0810
     17 C         140.2104  144.3452  162.1369 C.3     1  UNL1        0.0844
     18 N         141.5226  144.0799  162.8137 N.3     1  UNL1       -0.2677
     19 C         142.0442  142.6772  162.9148 C.3     1  UNL1        0.1046
     20 C         143.3563  142.4120  163.5916 C.3     1  UNL1        0.1595
     21 O         144.1468  143.5495  164.1671 O.3     1  UNL1       -0.3508
     22 C         143.6252  144.9522  164.0659 C.3     1  UNL1        0.1595
     23 C         142.3131  145.2174  163.3892 C.3     1  UNL1        0.1046
@<TRIPOS>BOND
     1     1     2    1
     2     2     3   ar
     3     3     4   ar
     4     4    15    1
     5    15    16    1
     6    16    17    1
     7    17    18    1
     8    18    19    1
     9    19    20    1
    10    20    21    1
    11    21    22    1
    12    22    23    1
    13     4     5   ar
    14     5     6   ar
    15     6     7    1
    16     7     8   ar
    17     8     9   ar
    18     9    10   ar
    19    10    11    1
    20    10    12   ar
    21    12    13    1
    22    12    14   ar
    23     6     2   ar
    24    14     7   ar
    25    23    18    1
