@<TRIPOS>MOLECULE
*****
 35 39 0 0 0
SMALL
GASTEIGER

@<TRIPOS>ATOM
      1 N         139.3585  147.2835  156.4825 N.am    1  UNL1       -0.2874
      2 C         140.4242  146.2289  156.5287 C.2     1  UNL1        0.3040
      3 O         141.1185  145.8085  155.2672 O.2     1  UNL1       -0.2526
      4 N         140.7955  145.5947  157.8363 N.am    1  UNL1       -0.2642
      5 C         141.8612  144.5401  157.8825 C.3     1  UNL1        0.0954
      6 C         142.2326  143.9059  159.1901 C.3     1  UNL1        0.0309
      7 C         141.5382  144.3263  160.4515 C.3     1  UNL1        0.0827
      8 C         140.4726  145.3809  160.4053 C.3     1  UNL1        0.0309
      9 C         140.1012  146.0151  159.0977 C.3     1  UNL1        0.0954
     10 H         138.9028  147.5594  157.3104 H       1  UNL1        0.1510
     11 C         141.9096  143.6922  161.7591 C.ar    1  UNL1        0.2362
     12 N         140.9524  143.1607  162.7847 N.ar    1  UNL1       -0.1895
     13 C         141.7547  142.6182  163.9301 C.ar    1  UNL1        0.2210
     14 N         143.2075  142.8143  163.6127 N.ar    1  UNL1       -0.0544
     15 O         143.3033  143.4780  162.2710 O.2     1  UNL1       -0.3370
     16 C         141.2011  141.9898  165.1747 C.ar    1  UNL1        0.1202
     17 C         140.7587  140.5566  165.1582 C.ar    1  UNL1        0.0224
     18 C         140.2051  139.9282  166.4027 C.ar    1  UNL1        0.0031
     19 C         140.0940  140.7330  167.6636 C.ar    1  UNL1        0.0177
     20 C         139.5404  140.1046  168.9081 C.ar    1  UNL1        0.0015
     21 C         139.4293  140.9094  170.1690 C.ar    1  UNL1        0.0001
     22 C         139.8717  142.3426  170.1854 C.ar    1  UNL1        0.0015
     23 C         140.4252  142.9710  168.9410 C.ar    1  UNL1        0.0191
     24 C         140.5364  142.1662  167.6801 C.ar    1  UNL1        0.0814
     25 N         141.0899  142.7946  166.4356 N.ar    1  UNL1       -0.2422
     26 C         138.9871  147.9177  155.1748 C.3     1  UNL1        0.1054
     27 C         140.0203  149.0607  153.7167 C.3     1  UNL1        0.0178
     28 C         139.2346  149.3806  154.9537 C.3     1  UNL1        0.0637
     29 C         138.4488  149.7004  156.1908 C.3     1  UNL1        0.0178
     30 N         139.4819  150.8434  154.7327 N.3     1  UNL1       -0.2694
     31 C         138.4476  151.8493  155.1430 C.3     1  UNL1        0.1046
     32 C         138.6950  153.3122  154.9219 C.3     1  UNL1        0.1595
     33 O         139.9766  153.7691  154.2906 O.3     1  UNL1       -0.3508
     34 C         141.0109  152.7632  153.8803 C.3     1  UNL1        0.1595
     35 C         140.7636  151.3003  154.1013 C.3     1  UNL1        0.1046
@<TRIPOS>BOND
     1    27    28    1
     2    28    29    1
     3    28    26    1
     4    26     1    1
     5     1     2   am
     6     2     3    2
     7     2     4   am
     8     4     5    1
     9     5     6    1
    10     6     7    1
    11     7    11    1
    12    11    12   ar
    13    12    13   ar
    14    13    16    1
    15    16    17   ar
    16    17    18   ar
    17    18    19   ar
    18    19    20   ar
    19    20    21   ar
    20    21    22   ar
    21    22    23   ar
    22    23    24   ar
    23    24    25   ar
    24    13    14   ar
    25    14    15   ar
    26     7     8    1
    27     8     9    1
    28    28    30    1
    29    30    31    1
    30    31    32    1
    31    32    33    1
    32    33    34    1
    33    34    35    1
    34     9     4    1
    35    35    30    1
    36    15    11   ar
    37    25    16   ar
    38    24    19   ar
    39     1    10    1
@<TRIPOS>MOLECULE
*****
 35 39 0 0 0
SMALL
GASTEIGER

@<TRIPOS>ATOM
      1 N         142.2758  142.1610  164.3235 N.am    1  UNL1       -0.2874
      2 C         143.3001  141.1704  163.8551 C.2     1  UNL1        0.3040
      3 O         144.4938  140.8645  164.7105 O.2     1  UNL1       -0.2526
      4 N         143.1307  140.4855  162.5314 N.am    1  UNL1       -0.2642
      5 C         144.1550  139.4949  162.0630 C.3     1  UNL1        0.0954
      6 C         143.9856  138.8101  160.7393 C.3     1  UNL1        0.0309
      7 C         142.7919  139.1159  159.8839 C.3     1  UNL1        0.0827
      8 C         141.7676  140.1066  160.3523 C.3     1  UNL1        0.0309
      9 C         141.9370  140.7914  161.6761 C.3     1  UNL1        0.0954
     10 H         141.4923  142.3617  163.7621 H       1  UNL1        0.1510
     11 C         142.6225  138.4311  158.5602 C.ar    1  UNL1        0.2362
     12 N         142.9359  136.9943  158.2643 N.ar    1  UNL1       -0.1895
     13 C         142.6171  136.7381  156.8211 C.ar    1  UNL1        0.2210
     14 N         142.1066  138.0164  156.2251 N.ar    1  UNL1       -0.0544
     15 O         142.1099  139.0628  157.2999 O.2     1  UNL1       -0.3370
     16 C         142.7801  135.4326  156.1005 C.ar    1  UNL1        0.1202
     17 C         142.0274  135.1793  154.8280 C.ar    1  UNL1        0.0224
     18 C         142.1904  133.8739  154.1074 C.ar    1  UNL1        0.0031
     19 C         143.1061  132.8217  154.6593 C.ar    1  UNL1        0.0177
     20 C         143.2691  131.5163  153.9386 C.ar    1  UNL1        0.0015
     21 C         144.1848  130.4643  154.4906 C.ar    1  UNL1        0.0001
     22 C         144.9374  130.7176  155.7631 C.ar    1  UNL1        0.0015
     23 C         144.7745  132.0230  156.4837 C.ar    1  UNL1        0.0191
     24 C         143.8588  133.0751  155.9318 C.ar    1  UNL1        0.0814
     25 N         143.6958  134.3805  156.6524 N.ar    1  UNL1       -0.2422
     26 C         142.4452  142.8459  165.6473 C.3     1  UNL1        0.1054
     27 C         142.8583  142.1344  167.6026 C.3     1  UNL1        0.0178
     28 C         141.6114  142.4256  166.8213 C.3     1  UNL1        0.0637
     29 C         140.3645  142.7170  166.0399 C.3     1  UNL1        0.0178
     30 N         140.7776  142.0054  167.9952 N.3     1  UNL1       -0.2694
     31 C         140.6274  142.9203  169.1743 C.3     1  UNL1        0.1046
     32 C         139.7935  142.5001  170.3483 C.3     1  UNL1        0.1595
     33 O         139.1098  141.1650  170.3431 O.3     1  UNL1       -0.3508
     34 C         139.2600  140.2501  169.1639 C.3     1  UNL1        0.1595
     35 C         140.0939  140.6703  167.9900 C.3     1  UNL1        0.1046
@<TRIPOS>BOND
     1    27    28    1
     2    28    29    1
     3    28    26    1
     4    26     1    1
     5     1     2   am
     6     2     3    2
     7     2     4   am
     8     4     5    1
     9     5     6    1
    10     6     7    1
    11     7    11    1
    12    11    12   ar
    13    12    13   ar
    14    13    16    1
    15    16    17   ar
    16    17    18   ar
    17    18    19   ar
    18    19    20   ar
    19    20    21   ar
    20    21    22   ar
    21    22    23   ar
    22    23    24   ar
    23    24    25   ar
    24    13    14   ar
    25    14    15   ar
    26     7     8    1
    27     8     9    1
    28    28    30    1
    29    30    31    1
    30    31    32    1
    31    32    33    1
    32    33    34    1
    33    34    35    1
    34     9     4    1
    35    35    30    1
    36    15    11   ar
    37    25    16   ar
    38    24    19   ar
    39     1    10    1
@<TRIPOS>MOLECULE
*****
 35 39 0 0 0
SMALL
GASTEIGER

@<TRIPOS>ATOM
      1 N         140.0536  140.7033  164.1845 N.am    1  UNL1       -0.2874
      2 C         140.7213  141.4551  163.0714 C.2     1  UNL1        0.3040
      3 O         140.8728  142.9450  163.1578 O.2     1  UNL1       -0.2526
      4 N         141.2375  140.7171  161.8719 N.am    1  UNL1       -0.2642
      5 C         141.9052  141.4689  160.7589 C.3     1  UNL1        0.0954
      6 C         142.4214  140.7308  159.5594 C.3     1  UNL1        0.0309
      7 C         142.2699  139.2410  159.4730 C.3     1  UNL1        0.0827
      8 C         141.6022  138.4892  160.5861 C.3     1  UNL1        0.0309
      9 C         141.0860  139.2272  161.7855 C.3     1  UNL1        0.0954
     10 H         139.9541  139.7255  164.1278 H       1  UNL1        0.1510
     11 C         142.7861  138.5029  158.2735 C.ar    1  UNL1        0.2362
     12 N         142.5067  137.0690  157.9329 N.ar    1  UNL1       -0.1895
     13 C         143.2203  136.7491  156.6529 C.ar    1  UNL1        0.2210
     14 N         143.9407  137.9852  156.2023 N.ar    1  UNL1       -0.0544
     15 O         143.6724  139.0691  157.2039 O.2     1  UNL1       -0.3370
     16 C         143.2144  135.4254  155.9473 C.ar    1  UNL1        0.1202
     17 C         142.3982  135.2429  154.7021 C.ar    1  UNL1        0.0224
     18 C         142.3923  133.9192  153.9965 C.ar    1  UNL1        0.0031
     19 C         143.2027  132.7780  154.5361 C.ar    1  UNL1        0.0177
     20 C         143.1968  131.4544  153.8305 C.ar    1  UNL1        0.0015
     21 C         144.0071  130.3133  154.3701 C.ar    1  UNL1        0.0001
     22 C         144.8232  130.4958  155.6153 C.ar    1  UNL1        0.0015
     23 C         144.8291  131.8194  156.3209 C.ar    1  UNL1        0.0191
     24 C         144.0188  132.9605  155.7813 C.ar    1  UNL1        0.0814
     25 N         144.0247  134.2843  156.4869 N.ar    1  UNL1       -0.2422
     26 C         139.5373  141.4414  165.3841 C.3     1  UNL1        0.1054
     27 C         139.5449  139.8165  166.7477 C.3     1  UNL1        0.0178
     28 C         140.1409  141.1929  166.7346 C.3     1  UNL1        0.0637
     29 C         140.7369  142.5694  166.7214 C.3     1  UNL1        0.0178
     30 N         140.7445  140.9445  168.0851 N.3     1  UNL1       -0.2694
     31 C         142.2019  141.2138  168.3162 C.3     1  UNL1        0.1046
     32 C         142.8056  140.9654  169.6668 C.3     1  UNL1        0.1595
     33 O         141.9519  140.4477  170.7862 O.3     1  UNL1       -0.3508
     34 C         140.4944  140.1784  170.5551 C.3     1  UNL1        0.1595
     35 C         139.8907  140.4268  169.2045 C.3     1  UNL1        0.1046
@<TRIPOS>BOND
     1    27    28    1
     2    28    29    1
     3    28    26    1
     4    26     1    1
     5     1     2   am
     6     2     3    2
     7     2     4   am
     8     4     5    1
     9     5     6    1
    10     6     7    1
    11     7    11    1
    12    11    12   ar
    13    12    13   ar
    14    13    16    1
    15    16    17   ar
    16    17    18   ar
    17    18    19   ar
    18    19    20   ar
    19    20    21   ar
    20    21    22   ar
    21    22    23   ar
    22    23    24   ar
    23    24    25   ar
    24    13    14   ar
    25    14    15   ar
    26     7     8    1
    27     8     9    1
    28    28    30    1
    29    30    31    1
    30    31    32    1
    31    32    33    1
    32    33    34    1
    33    34    35    1
    34     9     4    1
    35    35    30    1
    36    15    11   ar
    37    25    16   ar
    38    24    19   ar
    39     1    10    1
@<TRIPOS>MOLECULE
*****
 35 39 0 0 0
SMALL
GASTEIGER

@<TRIPOS>ATOM
      1 N         142.5284  136.1985  157.1954 N.am    1  UNL1       -0.2874
      2 C         142.7859  137.6687  157.3446 C.2     1  UNL1        0.3040
      3 O         142.8459  138.5467  156.1298 O.2     1  UNL1       -0.2526
      4 N         142.9834  138.2609  158.7085 N.am    1  UNL1       -0.2642
      5 C         143.2409  139.7311  158.8576 C.3     1  UNL1        0.0954
      6 C         143.4384  140.3233  160.2216 C.3     1  UNL1        0.0309
      7 C         143.3784  139.4453  161.4363 C.3     1  UNL1        0.0827
      8 C         143.1209  137.9751  161.2871 C.3     1  UNL1        0.0309
      9 C         142.9234  137.3829  159.9232 C.3     1  UNL1        0.0954
     10 H         142.4890  135.6223  157.9927 H       1  UNL1        0.1510
     11 C         143.5759  140.0375  162.8002 C.ar    1  UNL1        0.2362
     12 N         142.6995  139.8089  163.9960 N.ar    1  UNL1       -0.1895
     13 C         143.2665  140.5924  165.1426 C.ar    1  UNL1        0.2210
     14 N         144.4932  141.3051  164.6556 N.ar    1  UNL1       -0.0544
     15 O         144.6844  140.9622  163.2079 O.2     1  UNL1       -0.3370
     16 C         142.7052  140.6526  166.5324 C.ar    1  UNL1        0.1202
     17 C         142.8758  139.4871  167.4612 C.ar    1  UNL1        0.0224
     18 C         142.3146  139.5472  168.8509 C.ar    1  UNL1        0.0031
     19 C         141.5827  140.7728  169.3119 C.ar    1  UNL1        0.0177
     20 C         141.0214  140.8329  170.7016 C.ar    1  UNL1        0.0015
     21 C         140.2896  142.0584  171.1625 C.ar    1  UNL1        0.0001
     22 C         140.1190  143.2239  170.2337 C.ar    1  UNL1        0.0015
     23 C         140.6803  143.1638  168.8440 C.ar    1  UNL1        0.0191
     24 C         141.4121  141.9382  168.3831 C.ar    1  UNL1        0.0814
     25 N         141.9734  141.8781  166.9933 N.ar    1  UNL1       -0.2422
     26 C         142.3309  135.6063  155.8314 C.3     1  UNL1        0.1054
     27 C         142.5121  134.4287  154.0763 C.3     1  UNL1        0.0178
     28 C         142.8719  134.2422  155.5205 C.3     1  UNL1        0.0637
     29 C         143.2317  134.0558  156.9648 C.3     1  UNL1        0.0178
     30 N         143.4130  132.8783  155.2097 N.3     1  UNL1       -0.2694
     31 C         144.4011  132.2343  156.1365 C.3     1  UNL1        0.1046
     32 C         144.9422  130.8702  155.8257 C.3     1  UNL1        0.1595
     33 O         144.4952  130.1501  154.5881 O.3     1  UNL1       -0.3508
     34 C         143.5071  130.7941  153.6613 C.3     1  UNL1        0.1595
     35 C         142.9660  132.1582  153.9721 C.3     1  UNL1        0.1046
@<TRIPOS>BOND
     1    27    28    1
     2    28    29    1
     3    28    26    1
     4    26     1    1
     5     1     2   am
     6     2     3    2
     7     2     4   am
     8     4     5    1
     9     5     6    1
    10     6     7    1
    11     7    11    1
    12    11    12   ar
    13    12    13   ar
    14    13    16    1
    15    16    17   ar
    16    17    18   ar
    17    18    19   ar
    18    19    20   ar
    19    20    21   ar
    20    21    22   ar
    21    22    23   ar
    22    23    24   ar
    23    24    25   ar
    24    13    14   ar
    25    14    15   ar
    26     7     8    1
    27     8     9    1
    28    28    30    1
    29    30    31    1
    30    31    32    1
    31    32    33    1
    32    33    34    1
    33    34    35    1
    34     9     4    1
    35    35    30    1
    36    15    11   ar
    37    25    16   ar
    38    24    19   ar
    39     1    10    1
@<TRIPOS>MOLECULE
*****
 35 39 0 0 0
SMALL
GASTEIGER

@<TRIPOS>ATOM
      1 N         143.1156  139.4239  165.6519 N.am    1  UNL1       -0.2874
      2 C         142.4672  138.5737  164.6000 C.2     1  UNL1        0.3040
      3 O         141.4846  137.5113  164.9948 O.2     1  UNL1       -0.2526
      4 N         142.8014  138.7858  163.1532 N.am    1  UNL1       -0.2642
      5 C         142.1531  137.9355  162.1012 C.3     1  UNL1        0.0954
      6 C         142.4873  138.1477  160.6544 C.3     1  UNL1        0.0309
      7 C         143.4699  139.2100  160.2595 C.3     1  UNL1        0.0827
      8 C         144.1183  140.0603  161.3115 C.3     1  UNL1        0.0309
      9 C         143.7840  139.8482  162.7583 C.3     1  UNL1        0.0954
     10 H         143.7605  140.1212  165.3928 H       1  UNL1        0.1510
     11 C         143.8041  139.4222  158.8127 C.ar    1  UNL1        0.2362
     12 N         144.6426  140.5341  158.2553 N.ar    1  UNL1       -0.1895
     13 C         144.7152  140.3587  156.7674 C.ar    1  UNL1        0.2210
     14 N         143.9216  139.1385  156.4051 N.ar    1  UNL1       -0.0544
     15 O         143.3585  138.5596  157.6692 O.2     1  UNL1       -0.3370
     16 C         145.4521  141.2476  155.8098 C.ar    1  UNL1        0.1202
     17 C         144.7049  142.2792  155.0176 C.ar    1  UNL1        0.0224
     18 C         145.4417  143.1681  154.0600 C.ar    1  UNL1        0.0031
     19 C         146.9257  143.0254  153.8946 C.ar    1  UNL1        0.0177
     20 C         147.6625  143.9143  152.9370 C.ar    1  UNL1        0.0015
     21 C         149.1465  143.7716  152.7717 C.ar    1  UNL1        0.0001
     22 C         149.8937  142.7400  153.5639 C.ar    1  UNL1        0.0015
     23 C         149.1569  141.8511  154.5214 C.ar    1  UNL1        0.0191
     24 C         147.6729  141.9938  154.6868 C.ar    1  UNL1        0.0814
     25 N         146.9360  141.1049  155.6444 N.ar    1  UNL1       -0.2422
     26 C         142.7814  139.2118  167.0988 C.3     1  UNL1        0.1054
     27 C         142.7020  141.3131  166.8195 C.3     1  UNL1        0.0178
     28 C         142.4708  140.3875  167.9770 C.3     1  UNL1        0.0637
     29 C         142.2396  139.4618  169.1345 C.3     1  UNL1        0.0178
     30 N         142.1602  141.5631  168.8552 N.3     1  UNL1       -0.2694
     31 C         143.2277  142.1462  169.7331 C.3     1  UNL1        0.1046
     32 C         142.9171  143.3219  170.6114 C.3     1  UNL1        0.1595
     33 O         141.5391  143.9145  170.6118 O.3     1  UNL1       -0.3508
     34 C         140.4717  143.3315  169.7339 C.3     1  UNL1        0.1595
     35 C         140.7823  142.1558  168.8556 C.3     1  UNL1        0.1046
@<TRIPOS>BOND
     1    27    28    1
     2    28    29    1
     3    28    26    1
     4    26     1    1
     5     1     2   am
     6     2     3    2
     7     2     4   am
     8     4     5    1
     9     5     6    1
    10     6     7    1
    11     7    11    1
    12    11    12   ar
    13    12    13   ar
    14    13    16    1
    15    16    17   ar
    16    17    18   ar
    17    18    19   ar
    18    19    20   ar
    19    20    21   ar
    20    21    22   ar
    21    22    23   ar
    22    23    24   ar
    23    24    25   ar
    24    13    14   ar
    25    14    15   ar
    26     7     8    1
    27     8     9    1
    28    28    30    1
    29    30    31    1
    30    31    32    1
    31    32    33    1
    32    33    34    1
    33    34    35    1
    34     9     4    1
    35    35    30    1
    36    15    11   ar
    37    25    16   ar
    38    24    19   ar
    39     1    10    1
@<TRIPOS>MOLECULE
*****
 35 39 0 0 0
SMALL
GASTEIGER

@<TRIPOS>ATOM
      1 N         140.4049  141.1009  164.1768 N.am    1  UNL1       -0.2874
      2 C         140.4835  142.0936  163.0549 C.2     1  UNL1        0.3040
      3 O         139.6795  143.3585  163.1150 O.2     1  UNL1       -0.2526
      4 N         141.3660  141.8213  161.8730 N.am    1  UNL1       -0.2642
      5 C         141.4446  142.8140  160.7512 C.3     1  UNL1        0.0954
      6 C         142.3271  142.5417  159.5693 C.3     1  UNL1        0.0309
      7 C         143.1311  141.2768  159.5092 C.3     1  UNL1        0.0827
      8 C         143.0526  140.2841  160.6310 C.3     1  UNL1        0.0309
      9 C         142.1700  140.5564  161.8129 C.3     1  UNL1        0.0954
     10 H         140.9326  140.2708  164.1373 H       1  UNL1        0.1510
     11 C         144.0137  141.0045  158.3273 C.ar    1  UNL1        0.2362
     12 N         144.9477  141.9838  157.6801 N.ar    1  UNL1       -0.1895
     13 C         145.6284  141.2896  156.5379 C.ar    1  UNL1        0.2210
     14 N         145.1152  139.8814  156.4790 N.ar    1  UNL1       -0.0544
     15 O         144.1172  139.7052  157.5849 O.2     1  UNL1       -0.3370
     16 C         146.6441  141.8971  155.6162 C.ar    1  UNL1        0.1202
     17 C         146.2153  142.8920  154.5788 C.ar    1  UNL1        0.0224
     18 C         147.2309  143.4995  153.6572 C.ar    1  UNL1        0.0031
     19 C         148.6755  143.1121  153.7730 C.ar    1  UNL1        0.0177
     20 C         149.6911  143.7196  152.8514 C.ar    1  UNL1        0.0015
     21 C         151.1355  143.3322  152.9672 C.ar    1  UNL1        0.0001
     22 C         151.5643  142.3373  154.0047 C.ar    1  UNL1        0.0015
     23 C         150.5487  141.7298  154.9263 C.ar    1  UNL1        0.0191
     24 C         149.1043  142.1172  154.8104 C.ar    1  UNL1        0.0814
     25 N         148.0886  141.5097  155.7321 N.ar    1  UNL1       -0.2422
     26 C         139.5223  141.3732  165.3588 C.3     1  UNL1        0.1054
     27 C         140.6110  142.5383  166.7578 C.3     1  UNL1        0.0178
     28 C         140.0406  141.1510  166.7487 C.3     1  UNL1        0.0637
     29 C         139.4702  139.7637  166.7396 C.3     1  UNL1        0.0178
     30 N         140.5588  140.9288  168.1386 N.3     1  UNL1       -0.2694
     31 C         139.6456  140.3976  169.2035 C.3     1  UNL1        0.1046
     32 C         140.1639  140.1754  170.5936 C.3     1  UNL1        0.1595
     33 O         141.5952  140.4843  170.9187 O.3     1  UNL1       -0.3508
     34 C         142.5084  141.0155  169.8538 C.3     1  UNL1        0.1595
     35 C         141.9902  141.2377  168.4638 C.3     1  UNL1        0.1046
@<TRIPOS>BOND
     1    27    28    1
     2    28    29    1
     3    28    26    1
     4    26     1    1
     5     1     2   am
     6     2     3    2
     7     2     4   am
     8     4     5    1
     9     5     6    1
    10     6     7    1
    11     7    11    1
    12    11    12   ar
    13    12    13   ar
    14    13    16    1
    15    16    17   ar
    16    17    18   ar
    17    18    19   ar
    18    19    20   ar
    19    20    21   ar
    20    21    22   ar
    21    22    23   ar
    22    23    24   ar
    23    24    25   ar
    24    13    14   ar
    25    14    15   ar
    26     7     8    1
    27     8     9    1
    28    28    30    1
    29    30    31    1
    30    31    32    1
    31    32    33    1
    32    33    34    1
    33    34    35    1
    34     9     4    1
    35    35    30    1
    36    15    11   ar
    37    25    16   ar
    38    24    19   ar
    39     1    10    1
@<TRIPOS>MOLECULE
*****
 35 39 0 0 0
SMALL
GASTEIGER

@<TRIPOS>ATOM
      1 N         142.8594  136.7850  156.5956 N.am    1  UNL1       -0.2874
      2 C         141.5696  137.3817  157.0758 C.2     1  UNL1        0.3040
      3 O         140.2948  137.1082  156.3341 O.2     1  UNL1       -0.2526
      4 N         141.5548  138.2517  158.2975 N.am    1  UNL1       -0.2642
      5 C         140.2650  138.8483  158.7777 C.3     1  UNL1        0.0954
      6 C         140.2501  139.7183  159.9995 C.3     1  UNL1        0.0309
      7 C         141.5250  139.9917  160.7411 C.3     1  UNL1        0.0827
      8 C         142.8148  139.3951  160.2610 C.3     1  UNL1        0.0309
      9 C         142.8296  138.5251  159.0392 C.3     1  UNL1        0.0954
     10 H         143.6961  136.9645  157.0823 H       1  UNL1        0.1510
     11 C         141.5101  140.8617  161.9629 C.ar    1  UNL1        0.2362
     12 N         141.7114  140.4008  163.3762 N.ar    1  UNL1       -0.1895
     13 C         141.6170  141.5997  164.2726 C.ar    1  UNL1        0.2210
     14 N         141.3574  142.8016  163.4136 N.ar    1  UNL1       -0.0544
     15 O         141.2913  142.3456  161.9861 O.2     1  UNL1       -0.3370
     16 C         141.7576  141.5970  165.7661 C.ar    1  UNL1        0.1202
     17 C         142.9421  142.2556  166.4090 C.ar    1  UNL1        0.0224
     18 C         143.0827  142.2530  167.9024 C.ar    1  UNL1        0.0031
     19 C         142.0388  141.5918  168.7529 C.ar    1  UNL1        0.0177
     20 C         142.1795  141.5892  170.2462 C.ar    1  UNL1        0.0015
     21 C         141.1357  140.9280  171.0967 C.ar    1  UNL1        0.0001
     22 C         139.9512  140.2694  170.4537 C.ar    1  UNL1        0.0015
     23 C         139.8106  140.2720  168.9603 C.ar    1  UNL1        0.0191
     24 C         140.8544  140.9332  168.1099 C.ar    1  UNL1        0.0814
     25 N         140.7138  140.9359  166.6165 N.ar    1  UNL1       -0.2422
     26 C         142.8743  135.9150  155.3737 C.3     1  UNL1        0.1054
     27 C         141.7463  134.4526  154.3301 C.3     1  UNL1        0.0178
     28 C         142.6782  134.4337  155.5053 C.3     1  UNL1        0.0637
     29 C         143.6101  134.4148  156.6806 C.3     1  UNL1        0.0178
     30 N         142.4821  132.9525  155.6370 N.3     1  UNL1       -0.2694
     31 C         141.3742  132.2731  154.8880 C.3     1  UNL1        0.1046
     32 C         141.1780  130.7917  155.0197 C.3     1  UNL1        0.1595
     33 O         142.0898  129.9898  155.9004 O.3     1  UNL1       -0.3508
     34 C         143.1977  130.6692  156.6494 C.3     1  UNL1        0.1595
     35 C         143.3938  132.1506  156.5177 C.3     1  UNL1        0.1046
@<TRIPOS>BOND
     1    27    28    1
     2    28    29    1
     3    28    26    1
     4    26     1    1
     5     1     2   am
     6     2     3    2
     7     2     4   am
     8     4     5    1
     9     5     6    1
    10     6     7    1
    11     7    11    1
    12    11    12   ar
    13    12    13   ar
    14    13    16    1
    15    16    17   ar
    16    17    18   ar
    17    18    19   ar
    18    19    20   ar
    19    20    21   ar
    20    21    22   ar
    21    22    23   ar
    22    23    24   ar
    23    24    25   ar
    24    13    14   ar
    25    14    15   ar
    26     7     8    1
    27     8     9    1
    28    28    30    1
    29    30    31    1
    30    31    32    1
    31    32    33    1
    32    33    34    1
    33    34    35    1
    34     9     4    1
    35    35    30    1
    36    15    11   ar
    37    25    16   ar
    38    24    19   ar
    39     1    10    1
@<TRIPOS>MOLECULE
*****
 35 39 0 0 0
SMALL
GASTEIGER

@<TRIPOS>ATOM
      1 N         144.8023  141.4600  156.2306 N.am    1  UNL1       -0.2874
      2 C         143.5439  140.6487  156.3209 C.2     1  UNL1        0.3040
      3 O         142.7631  140.3349  155.0792 O.2     1  UNL1       -0.2526
      4 N         143.0664  140.1513  157.6530 N.am    1  UNL1       -0.2642
      5 C         141.8079  139.3400  157.7434 C.3     1  UNL1        0.0954
      6 C         141.3304  138.8426  159.0755 C.3     1  UNL1        0.0309
      7 C         142.1112  139.1564  160.3172 C.3     1  UNL1        0.0827
      8 C         143.3696  139.9677  160.2268 C.3     1  UNL1        0.0309
      9 C         143.8472  140.4651  158.8947 C.3     1  UNL1        0.0954
     10 H         145.3148  141.6660  157.0455 H       1  UNL1        0.1510
     11 C         141.6336  138.6590  161.6492 C.ar    1  UNL1        0.2362
     12 N         141.3071  139.5079  162.8421 N.ar    1  UNL1       -0.1895
     13 C         140.8704  138.5988  163.9524 C.ar    1  UNL1        0.2210
     14 N         140.9270  137.1881  163.4459 N.ar    1  UNL1       -0.0544
     15 O         141.3987  137.2252  162.0225 O.2     1  UNL1       -0.3370
     16 C         140.4507  139.0256  165.3278 C.ar    1  UNL1        0.1202
     17 C         139.0094  138.9366  165.7336 C.ar    1  UNL1        0.0224
     18 C         138.5897  139.3634  167.1090 C.ar    1  UNL1        0.0031
     19 C         139.6114  139.8792  168.0787 C.ar    1  UNL1        0.0177
     20 C         139.1917  140.3060  169.4540 C.ar    1  UNL1        0.0015
     21 C         140.2133  140.8218  170.4236 C.ar    1  UNL1        0.0001
     22 C         141.6547  140.9108  170.0178 C.ar    1  UNL1        0.0015
     23 C         142.0743  140.4840  168.6425 C.ar    1  UNL1        0.0191
     24 C         141.0527  139.9682  167.6729 C.ar    1  UNL1        0.0814
     25 N         141.4724  139.5414  166.2974 N.ar    1  UNL1       -0.2422
     26 C         145.2800  141.9575  154.8984 C.3     1  UNL1        0.1054
     27 C         146.3289  141.1545  153.2387 C.3     1  UNL1        0.0178
     28 C         146.7256  141.8225  154.5218 C.3     1  UNL1        0.0637
     29 C         147.1223  142.4906  155.8050 C.3     1  UNL1        0.0178
     30 N         148.1712  141.6875  154.1452 N.3     1  UNL1       -0.2694
     31 C         149.2267  141.6848  155.2110 C.3     1  UNL1        0.1046
     32 C         150.6725  141.5498  154.8345 C.3     1  UNL1        0.1595
     33 O         151.0627  141.4176  153.3922 O.3     1  UNL1       -0.3508
     34 C         150.0072  141.4203  152.3264 C.3     1  UNL1        0.1595
     35 C         148.5614  141.5553  152.7029 C.3     1  UNL1        0.1046
@<TRIPOS>BOND
     1    27    28    1
     2    28    29    1
     3    28    26    1
     4    26     1    1
     5     1     2   am
     6     2     3    2
     7     2     4   am
     8     4     5    1
     9     5     6    1
    10     6     7    1
    11     7    11    1
    12    11    12   ar
    13    12    13   ar
    14    13    16    1
    15    16    17   ar
    16    17    18   ar
    17    18    19   ar
    18    19    20   ar
    19    20    21   ar
    20    21    22   ar
    21    22    23   ar
    22    23    24   ar
    23    24    25   ar
    24    13    14   ar
    25    14    15   ar
    26     7     8    1
    27     8     9    1
    28    28    30    1
    29    30    31    1
    30    31    32    1
    31    32    33    1
    32    33    34    1
    33    34    35    1
    34     9     4    1
    35    35    30    1
    36    15    11   ar
    37    25    16   ar
    38    24    19   ar
    39     1    10    1
@<TRIPOS>MOLECULE
*****
 35 39 0 0 0
SMALL
GASTEIGER

@<TRIPOS>ATOM
      1 N         141.8186  137.1591  156.9804 N.am    1  UNL1       -0.2874
      2 C         140.5564  137.9372  157.2071 C.2     1  UNL1        0.3040
      3 O         139.5327  138.0404  156.1156 O.2     1  UNL1       -0.2526
      4 N         140.3180  138.6122  158.5252 N.am    1  UNL1       -0.2642
      5 C         139.0558  139.3904  158.7519 C.3     1  UNL1        0.0954
      6 C         138.8174  140.0654  160.0700 C.3     1  UNL1        0.0309
      7 C         139.8412  139.9622  161.1615 C.3     1  UNL1        0.0827
      8 C         141.1033  139.1841  160.9348 C.3     1  UNL1        0.0309
      9 C         141.3417  138.5091  159.6167 C.3     1  UNL1        0.0954
     10 H         142.4905  137.0914  157.6968 H       1  UNL1        0.1510
     11 C         139.6027  140.6372  162.4796 C.ar    1  UNL1        0.2362
     12 N         140.0934  140.1620  163.8151 N.ar    1  UNL1       -0.1895
     13 C         139.6257  141.1371  164.8545 C.ar    1  UNL1        0.2210
     14 N         138.8460  142.2149  164.1615 N.ar    1  UNL1       -0.0544
     15 O         138.8318  141.9061  162.6938 O.2     1  UNL1       -0.3370
     16 C         139.8911  141.0496  166.3283 C.ar    1  UNL1        0.1202
     17 C         139.1209  140.0782  167.1727 C.ar    1  UNL1        0.0224
     18 C         139.3863  139.9907  168.6465 C.ar    1  UNL1        0.0031
     19 C         140.4220  140.8747  169.2758 C.ar    1  UNL1        0.0177
     20 C         140.6874  140.7872  170.7495 C.ar    1  UNL1        0.0015
     21 C         141.7231  141.6711  171.3788 C.ar    1  UNL1        0.0001
     22 C         142.4933  142.6425  170.5344 C.ar    1  UNL1        0.0015
     23 C         142.2279  142.7300  169.0607 C.ar    1  UNL1        0.0191
     24 C         141.1923  141.8461  168.4314 C.ar    1  UNL1        0.0814
     25 N         140.9268  141.9336  166.9576 N.ar    1  UNL1       -0.2422
     26 C         142.0571  136.4840  155.6623 C.3     1  UNL1        0.1054
     27 C         143.5433  135.2130  156.4842 C.3     1  UNL1        0.0178
     28 C         142.3384  135.0114  155.6138 C.3     1  UNL1        0.0637
     29 C         141.1335  134.8099  154.7433 C.3     1  UNL1        0.0178
     30 N         142.6197  133.5389  155.5653 N.3     1  UNL1       -0.2694
     31 C         141.5081  132.5719  155.2838 C.3     1  UNL1        0.1046
     32 C         141.7894  131.0992  155.2353 C.3     1  UNL1        0.1595
     33 O         143.1823  130.5936  155.4683 O.3     1  UNL1       -0.3508
     34 C         144.2939  131.5607  155.7497 C.3     1  UNL1        0.1595
     35 C         144.0126  133.0333  155.7982 C.3     1  UNL1        0.1046
@<TRIPOS>BOND
     1    27    28    1
     2    28    29    1
     3    28    26    1
     4    26     1    1
     5     1     2   am
     6     2     3    2
     7     2     4   am
     8     4     5    1
     9     5     6    1
    10     6     7    1
    11     7    11    1
    12    11    12   ar
    13    12    13   ar
    14    13    16    1
    15    16    17   ar
    16    17    18   ar
    17    18    19   ar
    18    19    20   ar
    19    20    21   ar
    20    21    22   ar
    21    22    23   ar
    22    23    24   ar
    23    24    25   ar
    24    13    14   ar
    25    14    15   ar
    26     7     8    1
    27     8     9    1
    28    28    30    1
    29    30    31    1
    30    31    32    1
    31    32    33    1
    32    33    34    1
    33    34    35    1
    34     9     4    1
    35    35    30    1
    36    15    11   ar
    37    25    16   ar
    38    24    19   ar
    39     1    10    1
