@<TRIPOS>MOLECULE
*****
 42 48 0 0 0
SMALL
GASTEIGER

@<TRIPOS>ATOM
      1 C         144.4720  142.9094  162.3468 C.ar    1  UNL1        0.0508
      2 C         145.2710  142.1105  163.3334 C.ar    1  UNL1        0.0147
      3 C         144.7027  141.8067  164.6879 C.ar    1  UNL1        0.0019
      4 C         143.3353  142.3016  165.0558 C.ar    1  UNL1        0.0090
      5 C         142.5363  143.1005  164.0691 C.ar    1  UNL1        0.0307
      6 S         141.1712  143.7170  164.1479 S.2     1  UNL1       -0.0869
      7 C         140.8958  144.4020  162.8421 C.ar    1  UNL1        0.0295
      8 C         139.7113  145.1766  162.3453 C.ar    1  UNL1        0.0065
      9 C         139.7218  145.7580  160.9626 C.ar    1  UNL1        0.0005
     10 C         140.9168  145.5647  160.0768 C.ar    1  UNL1        0.0000
     11 C         142.1013  144.7901  160.5736 C.ar    1  UNL1        0.0006
     12 C         142.0907  144.2087  161.9563 C.ar    1  UNL1        0.0077
     13 C         143.1046  143.4044  162.7146 C.ar    1  UNL1        0.0200
     14 C         142.7670  141.9978  166.4103 C.ar    1  UNL1        0.0352
     15 C         143.4535  142.5068  167.6431 C.ar    1  UNL1        0.0031
     16 C         142.8852  142.2030  168.9976 C.ar    1  UNL1        0.0003
     17 C         141.6304  141.3901  169.1193 C.ar    1  UNL1        0.0062
     18 C         140.9440  140.8811  167.8866 C.ar    1  UNL1        0.0736
     19 C         139.6892  140.0682  168.0083 C.ar    1  UNL1        0.2030
     20 O         139.1209  139.7644  169.3628 O.2     1  UNL1       -0.2863
     21 C         139.0028  139.5592  166.7756 C.ar    1  UNL1        0.0955
     22 C         139.5711  139.8631  165.4210 C.ar    1  UNL1        0.2024
     23 O         140.8259  140.6759  165.2993 O.2     1  UNL1       -0.4398
     24 C         141.5123  141.1850  166.5320 C.ar    1  UNL1        0.1498
     25 N         138.8846  139.3541  164.1883 N.pl3   1  UNL1       -0.2742
     26 C         138.9054  137.8886  163.8692 C.3     1  UNL1        0.1257
     27 C         138.2189  137.3796  162.6365 C.3     1  UNL1        0.1637
     28 O         137.5117  138.3360  161.7228 O.3     1  UNL1       -0.3501
     29 C         137.4909  139.8016  162.0418 C.3     1  UNL1        0.1637
     30 C         138.1774  140.3106  163.2745 C.3     1  UNL1        0.1257
     31 C         144.6257  142.3963  159.8045 C.2     1  UNL1        0.2425
     32 O         143.6428  141.2757  159.9711 O.2     1  UNL1       -0.2733
     33 N         145.0404  143.2132  160.9922 N.am    1  UNL1       -0.2828
     34 H         145.6855  143.9488  160.8828 H       1  UNL1        0.1549
     35 C         145.1942  142.7002  158.4500 C.3     1  UNL1        0.1588
     36 C         142.8877  140.0772  153.5714 C.3     1  UNL1        0.0897
     37 N         143.4643  140.7330  154.7910 N.3     1  UNL1       -0.2691
     38 C         142.9269  142.0534  155.2576 C.3     1  UNL1        0.0897
     39 C         143.5035  142.7091  156.4773 C.3     1  UNL1        0.0900
     40 N         144.6176  142.0445  157.2304 N.3     1  UNL1       -0.2626
     41 C         145.1550  140.7240  156.7638 C.3     1  UNL1        0.0900
     42 C         144.5784  140.0683  155.5442 C.3     1  UNL1        0.0897
@<TRIPOS>BOND
     1    36    37    1
     2    37    38    1
     3    38    39    1
     4    39    40    1
     5    40    35    1
     6    35    31    1
     7    31    32    2
     8    31    33   am
     9    33     1    1
    10     1     2   ar
    11     2     3   ar
    12     3     4   ar
    13     4    14    1
    14    14    15   ar
    15    15    16   ar
    16    16    17   ar
    17    17    18   ar
    18    18    19   ar
    19    19    20    2
    20    19    21   ar
    21    21    22   ar
    22    22    25    1
    23    25    26    1
    24    26    27    1
    25    27    28    1
    26    28    29    1
    27    29    30    1
    28    22    23   ar
    29    23    24   ar
    30     4     5   ar
    31     5     6   ar
    32     6     7   ar
    33     7     8   ar
    34     8     9   ar
    35     9    10   ar
    36    10    11   ar
    37    11    12   ar
    38    12    13   ar
    39    40    41    1
    40    41    42    1
    41    42    37    1
    42    13     1   ar
    43    24    14   ar
    44    13     5   ar
    45    24    18   ar
    46    12     7   ar
    47    30    25    1
    48    33    34    1
@<TRIPOS>MOLECULE
*****
 42 48 0 0 0
SMALL
GASTEIGER

@<TRIPOS>ATOM
      1 C         142.2308  138.4676  159.6704 C.ar    1  UNL1        0.0508
      2 C         143.3734  137.9952  160.5198 C.ar    1  UNL1        0.0147
      3 C         143.8811  138.8547  161.6394 C.ar    1  UNL1        0.0019
      4 C         143.2464  140.1866  161.9095 C.ar    1  UNL1        0.0090
      5 C         142.1038  140.6590  161.0601 C.ar    1  UNL1        0.0307
      6 S         141.2848  141.9154  161.0880 S.2     1  UNL1       -0.0869
      7 C         140.2709  141.8323  159.9857 C.ar    1  UNL1        0.0295
      8 C         139.1973  142.7785  159.5361 C.ar    1  UNL1        0.0065
      9 C         138.3161  142.4170  158.3774 C.ar    1  UNL1        0.0005
     10 C         138.5085  141.1093  157.6682 C.ar    1  UNL1        0.0000
     11 C         139.5820  140.1631  158.1178 C.ar    1  UNL1        0.0006
     12 C         140.4632  140.5246  159.2766 C.ar    1  UNL1        0.0077
     13 C         141.5960  139.7995  159.9406 C.ar    1  UNL1        0.0200
     14 C         143.7541  141.0461  163.0291 C.ar    1  UNL1        0.0352
     15 C         144.9613  141.9121  162.8216 C.ar    1  UNL1        0.0031
     16 C         145.4692  142.7716  163.9411 C.ar    1  UNL1        0.0003
     17 C         144.7698  142.7652  165.2681 C.ar    1  UNL1        0.0062
     18 C         143.5627  141.8993  165.4755 C.ar    1  UNL1        0.0736
     19 C         142.8633  141.8930  166.8025 C.ar    1  UNL1        0.2030
     20 O         143.3711  142.7525  167.9221 O.2     1  UNL1       -0.2863
     21 C         141.6562  141.0271  167.0100 C.ar    1  UNL1        0.0955
     22 C         141.1484  140.1675  165.8904 C.ar    1  UNL1        0.2024
     23 O         141.8477  140.1739  164.5634 O.2     1  UNL1       -0.4398
     24 C         143.0548  141.0398  164.3560 C.ar    1  UNL1        0.1498
     25 N         139.9413  139.3016  166.0979 N.pl3   1  UNL1       -0.2742
     26 C         138.9793  139.6091  167.2069 C.3     1  UNL1        0.1257
     27 C         137.7722  138.7432  167.4144 C.3     1  UNL1        0.1637
     28 O         137.5270  137.5698  166.5128 O.3     1  UNL1       -0.3501
     29 C         138.4890  137.2622  165.4037 C.3     1  UNL1        0.1637
     30 C         139.6961  138.1281  165.1963 C.3     1  UNL1        0.1257
     31 C         142.4454  137.5845  157.2365 C.2     1  UNL1        0.2425
     32 O         143.6755  138.4205  157.0415 O.2     1  UNL1       -0.2733
     33 N         141.7231  137.6080  158.5509 N.am    1  UNL1       -0.2828
     34 H         140.9157  137.0593  158.6787 H       1  UNL1        0.1549
     35 C         141.9377  136.7249  156.1170 C.3     1  UNL1        0.1588
     36 C         142.7501  130.7827  156.2916 C.3     1  UNL1        0.0897
     37 N         142.5470  132.2682  156.2479 N.3     1  UNL1       -0.2691
     38 C         143.3646  133.1633  157.1313 C.3     1  UNL1        0.0897
     39 C         143.1615  134.6488  157.0877 C.3     1  UNL1        0.0900
     40 N         142.1408  135.2394  156.1606 N.3     1  UNL1       -0.2626
     41 C         141.3231  134.3443  155.2772 C.3     1  UNL1        0.0900
     42 C         141.5262  132.8588  155.3209 C.3     1  UNL1        0.0897
@<TRIPOS>BOND
     1    36    37    1
     2    37    38    1
     3    38    39    1
     4    39    40    1
     5    40    35    1
     6    35    31    1
     7    31    32    2
     8    31    33   am
     9    33     1    1
    10     1     2   ar
    11     2     3   ar
    12     3     4   ar
    13     4    14    1
    14    14    15   ar
    15    15    16   ar
    16    16    17   ar
    17    17    18   ar
    18    18    19   ar
    19    19    20    2
    20    19    21   ar
    21    21    22   ar
    22    22    25    1
    23    25    26    1
    24    26    27    1
    25    27    28    1
    26    28    29    1
    27    29    30    1
    28    22    23   ar
    29    23    24   ar
    30     4     5   ar
    31     5     6   ar
    32     6     7   ar
    33     7     8   ar
    34     8     9   ar
    35     9    10   ar
    36    10    11   ar
    37    11    12   ar
    38    12    13   ar
    39    40    41    1
    40    41    42    1
    41    42    37    1
    42    13     1   ar
    43    24    14   ar
    44    13     5   ar
    45    24    18   ar
    46    12     7   ar
    47    30    25    1
    48    33    34    1
@<TRIPOS>MOLECULE
*****
 42 48 0 0 0
SMALL
GASTEIGER

@<TRIPOS>ATOM
      1 C         143.1979  139.5664  160.4188 C.ar    1  UNL1        0.0508
      2 C         143.8946  139.8820  159.1284 C.ar    1  UNL1        0.0147
      3 C         143.1650  139.7333  157.8263 C.ar    1  UNL1        0.0019
      4 C         141.7387  139.2691  157.8145 C.ar    1  UNL1        0.0090
      5 C         141.0420  138.9535  159.1049 C.ar    1  UNL1        0.0307
      6 S         139.6508  138.4794  159.4046 S.2     1  UNL1       -0.0869
      7 C         139.5206  138.3350  160.8920 C.ar    1  UNL1        0.0295
      8 C         138.3779  137.9028  161.7622 C.ar    1  UNL1        0.0065
      9 C         138.5459  137.8555  163.2520 C.ar    1  UNL1        0.0005
     10 C         139.8566  138.2405  163.8715 C.ar    1  UNL1        0.0000
     11 C         140.9994  138.6727  163.0013 C.ar    1  UNL1        0.0006
     12 C         140.8313  138.7200  161.5115 C.ar    1  UNL1        0.0077
     13 C         141.7716  139.1022  160.4070 C.ar    1  UNL1        0.0200
     14 C         141.0091  139.1204  156.5124 C.ar    1  UNL1        0.0352
     15 C         140.2768  140.2905  155.9250 C.ar    1  UNL1        0.0031
     16 C         139.5472  140.1419  154.6230 C.ar    1  UNL1        0.0003
     17 C         139.5499  138.8232  153.9081 C.ar    1  UNL1        0.0062
     18 C         140.2821  137.6532  154.4953 C.ar    1  UNL1        0.0736
     19 C         140.2848  136.3345  153.7804 C.ar    1  UNL1        0.2030
     20 O         139.5552  136.1858  152.4782 O.2     1  UNL1       -0.2863
     21 C         141.0170  135.1645  154.3676 C.ar    1  UNL1        0.0955
     22 C         141.7466  135.3131  155.6698 C.ar    1  UNL1        0.2024
     23 O         141.7440  136.6318  156.3847 O.2     1  UNL1       -0.4398
     24 C         141.0118  137.8018  155.7975 C.ar    1  UNL1        0.1498
     25 N         142.4789  134.1431  156.2571 N.pl3   1  UNL1       -0.2742
     26 C         142.0657  132.7453  155.9031 C.3     1  UNL1        0.1257
     27 C         142.7979  131.5753  156.4903 C.3     1  UNL1        0.1637
     28 O         143.9433  131.8030  157.4315 O.3     1  UNL1       -0.3501
     29 C         144.3566  133.2008  157.7856 C.3     1  UNL1        0.1637
     30 C         143.6244  134.3709  157.1984 C.3     1  UNL1        0.1257
     31 C         143.8242  140.9949  162.4967 C.2     1  UNL1        0.2425
     32 O         142.9912  142.1258  161.9704 O.2     1  UNL1       -0.2733
     33 N         143.9275  139.7152  161.7210 N.am    1  UNL1       -0.2828
     34 H         144.4742  138.9729  162.0665 H       1  UNL1        0.1549
     35 C         144.5538  141.1435  163.7988 C.3     1  UNL1        0.1588
     36 C         141.8131  139.7455  168.9499 C.3     1  UNL1        0.0897
     37 N         142.4983  140.0950  167.6622 N.3     1  UNL1       -0.2691
     38 C         142.7004  141.5330  167.2864 C.3     1  UNL1        0.0897
     39 C         143.3856  141.8826  165.9986 C.3     1  UNL1        0.0900
     40 N         143.8687  140.7940  165.0866 N.3     1  UNL1       -0.2626
     41 C         143.6665  139.3559  165.4623 C.3     1  UNL1        0.0900
     42 C         142.9814  139.0064  166.7501 C.3     1  UNL1        0.0897
@<TRIPOS>BOND
     1    36    37    1
     2    37    38    1
     3    38    39    1
     4    39    40    1
     5    40    35    1
     6    35    31    1
     7    31    32    2
     8    31    33   am
     9    33     1    1
    10     1     2   ar
    11     2     3   ar
    12     3     4   ar
    13     4    14    1
    14    14    15   ar
    15    15    16   ar
    16    16    17   ar
    17    17    18   ar
    18    18    19   ar
    19    19    20    2
    20    19    21   ar
    21    21    22   ar
    22    22    25    1
    23    25    26    1
    24    26    27    1
    25    27    28    1
    26    28    29    1
    27    29    30    1
    28    22    23   ar
    29    23    24   ar
    30     4     5   ar
    31     5     6   ar
    32     6     7   ar
    33     7     8   ar
    34     8     9   ar
    35     9    10   ar
    36    10    11   ar
    37    11    12   ar
    38    12    13   ar
    39    40    41    1
    40    41    42    1
    41    42    37    1
    42    13     1   ar
    43    24    14   ar
    44    13     5   ar
    45    24    18   ar
    46    12     7   ar
    47    30    25    1
    48    33    34    1
@<TRIPOS>MOLECULE
*****
 42 48 0 0 0
SMALL
GASTEIGER

@<TRIPOS>ATOM
      1 C         137.9546  140.7819  161.7777 C.ar    1  UNL1        0.0508
      2 C         137.5341  139.6962  160.8319 C.ar    1  UNL1        0.0147
      3 C         137.8063  139.8338  159.3633 C.ar    1  UNL1        0.0019
      4 C         138.4991  141.0571  158.8404 C.ar    1  UNL1        0.0090
      5 C         138.9197  142.1429  159.7862 C.ar    1  UNL1        0.0307
      6 S         139.6151  143.4533  159.5645 S.2     1  UNL1       -0.0869
      7 C         139.7727  144.1255  160.8962 C.ar    1  UNL1        0.0295
      8 C         140.3835  145.4369  161.2925 C.ar    1  UNL1        0.0065
      9 C         140.3962  145.8534  162.7334 C.ar    1  UNL1        0.0005
     10 C         139.7981  144.9584  163.7781 C.ar    1  UNL1        0.0000
     11 C         139.1873  143.6470  163.3818 C.ar    1  UNL1        0.0006
     12 C         139.1746  143.2305  161.9408 C.ar    1  UNL1        0.0077
     13 C         138.6474  142.0052  161.2548 C.ar    1  UNL1        0.0200
     14 C         138.7714  141.1948  157.3718 C.ar    1  UNL1        0.0352
     15 C         140.1636  141.4779  156.8903 C.ar    1  UNL1        0.0031
     16 C         140.4359  141.6156  155.4218 C.ar    1  UNL1        0.0003
     17 C         139.3160  141.4701  154.4345 C.ar    1  UNL1        0.0062
     18 C         137.9239  141.1870  154.9158 C.ar    1  UNL1        0.0736
     19 C         136.8040  141.0415  153.9286 C.ar    1  UNL1        0.2030
     20 O         137.0763  141.1791  152.4599 O.2     1  UNL1       -0.2863
     21 C         135.4119  140.7584  154.4099 C.ar    1  UNL1        0.0955
     22 C         135.1395  140.6207  155.8786 C.ar    1  UNL1        0.2024
     23 O         136.2594  140.7662  156.8659 O.2     1  UNL1       -0.4398
     24 C         137.6516  141.0493  156.3845 C.ar    1  UNL1        0.1498
     25 N         133.7474  140.3376  156.3600 N.pl3   1  UNL1       -0.2742
     26 C         133.5257  139.3793  157.4923 C.3     1  UNL1        0.1257
     27 C         132.1335  139.0962  157.9737 C.3     1  UNL1        0.1637
     28 O         130.9631  139.7714  157.3227 O.3     1  UNL1       -0.3501
     29 C         131.1847  140.7298  156.1903 C.3     1  UNL1        0.1637
     30 C         132.5768  141.0129  155.7089 C.3     1  UNL1        0.1257
     31 C         138.5820  139.8004  164.1001 C.2     1  UNL1        0.2425
     32 O         139.7539  139.0945  163.4852 O.2     1  UNL1       -0.2733
     33 N         137.6823  140.6442  163.2464 N.am    1  UNL1       -0.2828
     34 H         136.9131  141.1075  163.6500 H       1  UNL1        0.1549
     35 C         138.3097  139.6628  165.5687 C.3     1  UNL1        0.1588
     36 C         141.7576  142.5475  169.5424 C.3     1  UNL1        0.0897
     37 N         140.8957  141.8264  168.5490 N.3     1  UNL1       -0.2691
     38 C         140.8708  142.2698  167.1162 C.3     1  UNL1        0.0897
     39 C         140.0088  141.5486  166.1228 C.3     1  UNL1        0.0900
     40 N         139.1716  140.3840  166.5621 N.3     1  UNL1       -0.2626
     41 C         139.1965  139.9405  167.9949 C.3     1  UNL1        0.0900
     42 C         140.0585  140.6617  168.9883 C.3     1  UNL1        0.0897
@<TRIPOS>BOND
     1    36    37    1
     2    37    38    1
     3    38    39    1
     4    39    40    1
     5    40    35    1
     6    35    31    1
     7    31    32    2
     8    31    33   am
     9    33     1    1
    10     1     2   ar
    11     2     3   ar
    12     3     4   ar
    13     4    14    1
    14    14    15   ar
    15    15    16   ar
    16    16    17   ar
    17    17    18   ar
    18    18    19   ar
    19    19    20    2
    20    19    21   ar
    21    21    22   ar
    22    22    25    1
    23    25    26    1
    24    26    27    1
    25    27    28    1
    26    28    29    1
    27    29    30    1
    28    22    23   ar
    29    23    24   ar
    30     4     5   ar
    31     5     6   ar
    32     6     7   ar
    33     7     8   ar
    34     8     9   ar
    35     9    10   ar
    36    10    11   ar
    37    11    12   ar
    38    12    13   ar
    39    40    41    1
    40    41    42    1
    41    42    37    1
    42    13     1   ar
    43    24    14   ar
    44    13     5   ar
    45    24    18   ar
    46    12     7   ar
    47    30    25    1
    48    33    34    1
@<TRIPOS>MOLECULE
*****
 42 48 0 0 0
SMALL
GASTEIGER

@<TRIPOS>ATOM
      1 C         142.6871  138.8163  162.2587 C.ar    1  UNL1        0.0508
      2 C         143.9055  138.5762  161.4173 C.ar    1  UNL1        0.0147
      3 C         143.9519  139.0775  160.0043 C.ar    1  UNL1        0.0019
      4 C         142.7798  139.8188  159.4327 C.ar    1  UNL1        0.0090
      5 C         141.5614  140.0589  160.2741 C.ar    1  UNL1        0.0307
      6 S         140.2632  140.7526  159.9856 S.2     1  UNL1       -0.0869
      7 C         139.4145  140.6802  161.2203 C.ar    1  UNL1        0.0295
      8 C         138.0372  141.1913  161.5229 C.ar    1  UNL1        0.0065
      9 C         137.4335  140.9638  162.8771 C.ar    1  UNL1        0.0005
     10 C         138.2073  140.2253  163.9287 C.ar    1  UNL1        0.0000
     11 C         139.5846  139.7142  163.6261 C.ar    1  UNL1        0.0006
     12 C         140.1882  139.9416  162.2719 C.ar    1  UNL1        0.0077
     13 C         141.5151  139.5576  161.6871 C.ar    1  UNL1        0.0200
     14 C         142.8262  140.3200  158.0197 C.ar    1  UNL1        0.0352
     15 C         142.8963  141.7937  157.7485 C.ar    1  UNL1        0.0031
     16 C         142.9427  142.2950  156.3356 C.ar    1  UNL1        0.0003
     17 C         142.9189  141.3226  155.1937 C.ar    1  UNL1        0.0062
     18 C         142.8487  139.8490  155.4648 C.ar    1  UNL1        0.0736
     19 C         142.8249  138.8767  154.3229 C.ar    1  UNL1        0.2030
     20 O         142.8712  139.3779  152.9099 O.2     1  UNL1       -0.2863
     21 C         142.7548  137.4030  154.5940 C.ar    1  UNL1        0.0955
     22 C         142.7084  136.9017  156.0070 C.ar    1  UNL1        0.2024
     23 O         142.7322  137.8741  157.1489 O.2     1  UNL1       -0.4398
     24 C         142.8024  139.3477  156.8779 C.ar    1  UNL1        0.1498
     25 N         142.6383  135.4281  156.2781 N.pl3   1  UNL1       -0.2742
     26 C         141.7495  134.5536  155.4444 C.3     1  UNL1        0.1257
     27 C         141.6793  133.0800  155.7155 C.3     1  UNL1        0.1637
     28 O         142.4980  132.4809  156.8203 O.3     1  UNL1       -0.3501
     29 C         143.3868  133.3554  157.6541 C.3     1  UNL1        0.1637
     30 C         143.4570  134.8290  157.3830 C.3     1  UNL1        0.1257
     31 C         143.3396  139.0746  164.7603 C.2     1  UNL1        0.2425
     32 O         144.0846  140.3353  164.4358 O.2     1  UNL1       -0.2733
     33 N         142.6408  138.3150  163.6718 N.am    1  UNL1       -0.2828
     34 H         142.1519  137.4875  163.8848 H       1  UNL1        0.1549
     35 C         143.2933  138.5733  166.1732 C.3     1  UNL1        0.1588
     36 C         139.3298  140.8758  170.0449 C.3     1  UNL1        0.0897
     37 N         140.3207  140.3002  169.0770 N.3     1  UNL1       -0.2691
     38 C         141.6207  139.7431  169.5768 C.3     1  UNL1        0.0897
     39 C         142.6115  139.1675  168.6089 C.3     1  UNL1        0.0900
     40 N         142.3024  139.1489  167.1411 N.3     1  UNL1       -0.2626
     41 C         141.0025  139.7060  166.6413 C.3     1  UNL1        0.0900
     42 C         140.0116  140.2816  167.6092 C.3     1  UNL1        0.0897
@<TRIPOS>BOND
     1    36    37    1
     2    37    38    1
     3    38    39    1
     4    39    40    1
     5    40    35    1
     6    35    31    1
     7    31    32    2
     8    31    33   am
     9    33     1    1
    10     1     2   ar
    11     2     3   ar
    12     3     4   ar
    13     4    14    1
    14    14    15   ar
    15    15    16   ar
    16    16    17   ar
    17    17    18   ar
    18    18    19   ar
    19    19    20    2
    20    19    21   ar
    21    21    22   ar
    22    22    25    1
    23    25    26    1
    24    26    27    1
    25    27    28    1
    26    28    29    1
    27    29    30    1
    28    22    23   ar
    29    23    24   ar
    30     4     5   ar
    31     5     6   ar
    32     6     7   ar
    33     7     8   ar
    34     8     9   ar
    35     9    10   ar
    36    10    11   ar
    37    11    12   ar
    38    12    13   ar
    39    40    41    1
    40    41    42    1
    41    42    37    1
    42    13     1   ar
    43    24    14   ar
    44    13     5   ar
    45    24    18   ar
    46    12     7   ar
    47    30    25    1
    48    33    34    1
@<TRIPOS>MOLECULE
*****
 42 48 0 0 0
SMALL
GASTEIGER

@<TRIPOS>ATOM
      1 C         139.4251  141.9647  162.4226 C.ar    1  UNL1        0.0508
      2 C         138.4906  141.8904  161.2516 C.ar    1  UNL1        0.0147
      3 C         138.8260  142.6078  159.9777 C.ar    1  UNL1        0.0019
      4 C         140.0959  143.3995  159.8748 C.ar    1  UNL1        0.0090
      5 C         141.0304  143.4738  161.0459 C.ar    1  UNL1        0.0307
      6 S         142.3444  144.1710  161.2387 S.2     1  UNL1       -0.0869
      7 C         142.8211  143.8844  162.6318 C.ar    1  UNL1        0.0295
      8 C         144.0518  144.3067  163.3782 C.ar    1  UNL1        0.0065
      9 C         144.2630  143.8546  164.7927 C.ar    1  UNL1        0.0005
     10 C         143.2436  142.9803  165.4609 C.ar    1  UNL1        0.0000
     11 C         142.0129  142.5581  164.7145 C.ar    1  UNL1        0.0006
     12 C         141.8017  143.0102  163.2999 C.ar    1  UNL1        0.0077
     13 C         140.6950  142.7564  162.3197 C.ar    1  UNL1        0.0200
     14 C         140.4312  144.1170  158.6010 C.ar    1  UNL1        0.0352
     15 C         140.0610  145.5610  158.4335 C.ar    1  UNL1        0.0031
     16 C         140.3963  146.2784  157.1597 C.ar    1  UNL1        0.0003
     17 C         141.1019  145.5519  156.0532 C.ar    1  UNL1        0.0062
     18 C         141.4722  144.1080  156.2206 C.ar    1  UNL1        0.0736
     19 C         142.1778  143.3815  155.1140 C.ar    1  UNL1        0.2030
     20 O         142.5132  144.0990  153.8402 O.2     1  UNL1       -0.2863
     21 C         142.5480  141.9376  155.2814 C.ar    1  UNL1        0.0955
     22 C         142.2126  141.2201  156.5554 C.ar    1  UNL1        0.2024
     23 O         141.5070  141.9466  157.6619 O.2     1  UNL1       -0.4398
     24 C         141.1368  143.3905  157.4945 C.ar    1  UNL1        0.1498
     25 N         142.5828  139.7762  156.7227 N.pl3   1  UNL1       -0.2742
     26 C         143.2644  139.0424  155.6061 C.3     1  UNL1        0.1257
     27 C         143.6346  137.5985  155.7735 C.3     1  UNL1        0.1637
     28 O         143.3233  136.8884  157.0575 O.3     1  UNL1       -0.3501
     29 C         142.6417  137.6222  158.1742 C.3     1  UNL1        0.1637
     30 C         142.2715  139.0661  158.0068 C.3     1  UNL1        0.1257
     31 C         139.6736  139.8930  163.9707 C.2     1  UNL1        0.2425
     32 O         140.5928  139.2562  162.9711 O.2     1  UNL1       -0.2733
     33 N         139.0896  141.2472  163.6966 N.am    1  UNL1       -0.2828
     34 H         138.4863  141.6651  164.3527 H       1  UNL1        0.1549
     35 C         139.3381  139.1756  165.2446 C.3     1  UNL1        0.1588
     36 C         142.5036  140.2647  170.2239 C.3     1  UNL1        0.0897
     37 N         141.7122  139.9924  168.9791 N.3     1  UNL1       -0.2691
     38 C         140.2174  140.1154  168.9988 C.3     1  UNL1        0.0897
     39 C         139.4260  139.8431  167.7540 C.3     1  UNL1        0.0900
     40 N         140.1295  139.4479  166.4894 N.3     1  UNL1       -0.2626
     41 C         141.6243  139.3249  166.4697 C.3     1  UNL1        0.0900
     42 C         142.4157  139.5972  167.7145 C.3     1  UNL1        0.0897
@<TRIPOS>BOND
     1    36    37    1
     2    37    38    1
     3    38    39    1
     4    39    40    1
     5    40    35    1
     6    35    31    1
     7    31    32    2
     8    31    33   am
     9    33     1    1
    10     1     2   ar
    11     2     3   ar
    12     3     4   ar
    13     4    14    1
    14    14    15   ar
    15    15    16   ar
    16    16    17   ar
    17    17    18   ar
    18    18    19   ar
    19    19    20    2
    20    19    21   ar
    21    21    22   ar
    22    22    25    1
    23    25    26    1
    24    26    27    1
    25    27    28    1
    26    28    29    1
    27    29    30    1
    28    22    23   ar
    29    23    24   ar
    30     4     5   ar
    31     5     6   ar
    32     6     7   ar
    33     7     8   ar
    34     8     9   ar
    35     9    10   ar
    36    10    11   ar
    37    11    12   ar
    38    12    13   ar
    39    40    41    1
    40    41    42    1
    41    42    37    1
    42    13     1   ar
    43    24    14   ar
    44    13     5   ar
    45    24    18   ar
    46    12     7   ar
    47    30    25    1
    48    33    34    1
@<TRIPOS>MOLECULE
*****
 42 48 0 0 0
SMALL
GASTEIGER

@<TRIPOS>ATOM
      1 C         138.4807  140.9710  158.8827 C.ar    1  UNL1        0.0508
      2 C         138.1297  142.1380  159.7574 C.ar    1  UNL1        0.0147
      3 C         139.1441  142.6895  160.7149 C.ar    1  UNL1        0.0019
      4 C         140.5095  142.0740  160.7978 C.ar    1  UNL1        0.0090
      5 C         140.8605  140.9071  159.9231 C.ar    1  UNL1        0.0307
      6 S         142.1164  140.0988  159.7843 S.2     1  UNL1       -0.0869
      7 C         141.8782  139.0477  158.7409 C.ar    1  UNL1        0.0295
      8 C         142.7577  137.9667  158.1862 C.ar    1  UNL1        0.0065
      9 C         142.2341  137.0443  157.1255 C.ar    1  UNL1        0.0005
     10 C         140.8309  137.2030  156.6196 C.ar    1  UNL1        0.0000
     11 C         139.9514  138.2841  157.1743 C.ar    1  UNL1        0.0006
     12 C         140.4751  139.2064  158.2349 C.ar    1  UNL1        0.0077
     13 C         139.8461  140.3556  158.9656 C.ar    1  UNL1        0.0200
     14 C         141.5239  142.6255  161.7553 C.ar    1  UNL1        0.0352
     15 C         142.4849  143.6845  161.3023 C.ar    1  UNL1        0.0031
     16 C         143.4993  144.2360  162.2597 C.ar    1  UNL1        0.0003
     17 C         143.5527  143.7286  163.6703 C.ar    1  UNL1        0.0062
     18 C         142.5917  142.6698  164.1234 C.ar    1  UNL1        0.0736
     19 C         142.6451  142.1624  165.5340 C.ar    1  UNL1        0.2030
     20 O         143.6594  142.7139  166.4915 O.2     1  UNL1       -0.2863
     21 C         141.6841  141.1036  165.9871 C.ar    1  UNL1        0.0955
     22 C         140.6696  140.5520  165.0295 C.ar    1  UNL1        0.2024
     23 O         140.6162  141.0594  163.6189 O.2     1  UNL1       -0.4398
     24 C         141.5772  142.1182  163.1658 C.ar    1  UNL1        0.1498
     25 N         139.7086  139.4932  165.4826 N.pl3   1  UNL1       -0.2742
     26 C         139.6580  138.1729  164.7726 C.3     1  UNL1        0.1257
     27 C         138.6970  137.1140  165.2257 C.3     1  UNL1        0.1637
     28 O         137.7866  137.3755  166.3887 O.3     1  UNL1       -0.3501
     29 C         137.8372  138.6958  167.0988 C.3     1  UNL1        0.1637
     30 C         138.7982  139.7547  166.6457 C.3     1  UNL1        0.1257
     31 C         137.0391  141.2290  156.7368 C.2     1  UNL1        0.2425
     32 O         137.6262  142.5898  156.5058 O.2     1  UNL1       -0.2733
     33 N         137.4663  140.4196  157.9252 N.am    1  UNL1       -0.2828
     34 H         137.0809  139.5264  158.0767 H       1  UNL1        0.1549
     35 C         136.0246  140.6775  155.7793 C.3     1  UNL1        0.1588
     36 C         130.3445  139.8963  157.5475 C.3     1  UNL1        0.0897
     37 N         131.7645  140.0916  157.1054 N.3     1  UNL1       -0.2691
     38 C         132.8773  139.3877  157.8240 C.3     1  UNL1        0.0897
     39 C         134.2973  139.5829  157.3819 C.3     1  UNL1        0.0900
     40 N         134.6046  140.4822  156.2213 N.3     1  UNL1       -0.2626
     41 C         133.4919  141.1862  155.5028 C.3     1  UNL1        0.0900
     42 C         132.0719  140.9909  155.9448 C.3     1  UNL1        0.0897
@<TRIPOS>BOND
     1    36    37    1
     2    37    38    1
     3    38    39    1
     4    39    40    1
     5    40    35    1
     6    35    31    1
     7    31    32    2
     8    31    33   am
     9    33     1    1
    10     1     2   ar
    11     2     3   ar
    12     3     4   ar
    13     4    14    1
    14    14    15   ar
    15    15    16   ar
    16    16    17   ar
    17    17    18   ar
    18    18    19   ar
    19    19    20    2
    20    19    21   ar
    21    21    22   ar
    22    22    25    1
    23    25    26    1
    24    26    27    1
    25    27    28    1
    26    28    29    1
    27    29    30    1
    28    22    23   ar
    29    23    24   ar
    30     4     5   ar
    31     5     6   ar
    32     6     7   ar
    33     7     8   ar
    34     8     9   ar
    35     9    10   ar
    36    10    11   ar
    37    11    12   ar
    38    12    13   ar
    39    40    41    1
    40    41    42    1
    41    42    37    1
    42    13     1   ar
    43    24    14   ar
    44    13     5   ar
    45    24    18   ar
    46    12     7   ar
    47    30    25    1
    48    33    34    1
@<TRIPOS>MOLECULE
*****
 42 48 0 0 0
SMALL
GASTEIGER

@<TRIPOS>ATOM
      1 C         141.1561  140.3007  157.2137 C.ar    1  UNL1        0.0508
      2 C         142.1981  140.7442  158.1974 C.ar    1  UNL1        0.0147
      3 C         141.8878  141.8368  159.1772 C.ar    1  UNL1        0.0019
      4 C         140.5356  142.4859  159.1732 C.ar    1  UNL1        0.0090
      5 C         139.4936  142.0425  158.1894 C.ar    1  UNL1        0.0307
      6 S         138.0831  142.4931  157.9498 S.2     1  UNL1       -0.0869
      7 C         137.5217  141.6790  156.8220 C.ar    1  UNL1        0.0295
      8 C         136.1794  141.6829  156.1524 C.ar    1  UNL1        0.0065
      9 C         135.9007  140.7331  155.0255 C.ar    1  UNL1        0.0005
     10 C         136.9642  139.7793  154.5680 C.ar    1  UNL1        0.0000
     11 C         138.3065  139.7754  155.2376 C.ar    1  UNL1        0.0006
     12 C         138.5852  140.7252  156.3645 C.ar    1  UNL1        0.0077
     13 C         139.8039  140.9499  157.2097 C.ar    1  UNL1        0.0200
     14 C         140.2253  143.5786  160.1529 C.ar    1  UNL1        0.0352
     15 C         140.3534  145.0150  159.7399 C.ar    1  UNL1        0.0031
     16 C         140.0431  146.1076  160.7196 C.ar    1  UNL1        0.0003
     17 C         139.6048  145.7639  162.1123 C.ar    1  UNL1        0.0062
     18 C         139.4767  144.3276  162.5253 C.ar    1  UNL1        0.0736
     19 C         139.0384  143.9839  163.9181 C.ar    1  UNL1        0.2030
     20 O         138.7281  145.0765  164.8978 O.2     1  UNL1       -0.2863
     21 C         138.9103  142.5476  164.3311 C.ar    1  UNL1        0.0955
     22 C         139.2206  141.4549  163.3514 C.ar    1  UNL1        0.2024
     23 O         139.6589  141.7986  161.9586 O.2     1  UNL1       -0.4398
     24 C         139.7870  143.2349  161.5456 C.ar    1  UNL1        0.1498
     25 N         139.0925  140.0186  163.7644 N.pl3   1  UNL1       -0.2742
     26 C         139.3810  138.9260  162.7781 C.3     1  UNL1        0.1257
     27 C         139.2529  137.4897  163.1911 C.3     1  UNL1        0.1637
     28 O         138.8364  137.1460  164.5904 O.3     1  UNL1       -0.3501
     29 C         138.5480  138.2386  165.5768 C.3     1  UNL1        0.1637
     30 C         138.6760  139.6749  165.1638 C.3     1  UNL1        0.1257
     31 C         140.8983  137.8348  156.4372 C.2     1  UNL1        0.2425
     32 O         140.0198  137.5541  157.6201 O.2     1  UNL1       -0.2733
     33 N         141.4665  139.2080  156.2339 N.am    1  UNL1       -0.2828
     34 H         142.0431  139.3922  155.4574 H       1  UNL1        0.1549
     35 C         141.2086  136.7422  155.4575 C.3     1  UNL1        0.1588
     36 C         143.7283  131.6381  157.3547 C.3     1  UNL1        0.0897
     37 N         143.0984  132.9141  156.8804 N.3     1  UNL1       -0.2691
     38 C         142.0328  132.8775  155.8253 C.3     1  UNL1        0.0897
     39 C         141.4028  134.1535  155.3510 C.3     1  UNL1        0.0900
     40 N         141.8386  135.4662  155.9318 N.3     1  UNL1       -0.2626
     41 C         142.9042  135.5028  156.9868 C.3     1  UNL1        0.0900
     42 C         143.5341  134.2268  157.4611 C.3     1  UNL1        0.0897
@<TRIPOS>BOND
     1    36    37    1
     2    37    38    1
     3    38    39    1
     4    39    40    1
     5    40    35    1
     6    35    31    1
     7    31    32    2
     8    31    33   am
     9    33     1    1
    10     1     2   ar
    11     2     3   ar
    12     3     4   ar
    13     4    14    1
    14    14    15   ar
    15    15    16   ar
    16    16    17   ar
    17    17    18   ar
    18    18    19   ar
    19    19    20    2
    20    19    21   ar
    21    21    22   ar
    22    22    25    1
    23    25    26    1
    24    26    27    1
    25    27    28    1
    26    28    29    1
    27    29    30    1
    28    22    23   ar
    29    23    24   ar
    30     4     5   ar
    31     5     6   ar
    32     6     7   ar
    33     7     8   ar
    34     8     9   ar
    35     9    10   ar
    36    10    11   ar
    37    11    12   ar
    38    12    13   ar
    39    40    41    1
    40    41    42    1
    41    42    37    1
    42    13     1   ar
    43    24    14   ar
    44    13     5   ar
    45    24    18   ar
    46    12     7   ar
    47    30    25    1
    48    33    34    1
@<TRIPOS>MOLECULE
*****
 42 48 0 0 0
SMALL
GASTEIGER

@<TRIPOS>ATOM
      1 C         142.0485  140.0767  159.8400 C.ar    1  UNL1        0.0508
      2 C         142.7016  139.2541  160.9110 C.ar    1  UNL1        0.0147
      3 C         143.1581  139.9050  162.1830 C.ar    1  UNL1        0.0019
      4 C         142.9614  141.3783  162.3841 C.ar    1  UNL1        0.0090
      5 C         142.3083  142.2009  161.3132 C.ar    1  UNL1        0.0307
      6 S         141.9827  143.6627  161.2286 S.2     1  UNL1       -0.0869
      7 C         141.3250  143.9153  159.9043 C.ar    1  UNL1        0.0295
      8 C         140.7894  145.1655  159.2719 C.ar    1  UNL1        0.0065
      9 C         140.1729  145.1101  157.9057 C.ar    1  UNL1        0.0005
     10 C         140.0920  143.8044  157.1718 C.ar    1  UNL1        0.0000
     11 C         140.6276  142.5541  157.8041 C.ar    1  UNL1        0.0006
     12 C         141.2441  142.6096  159.1704 C.ar    1  UNL1        0.0077
     13 C         141.8518  141.5500  160.0411 C.ar    1  UNL1        0.0200
     14 C         143.4179  142.0292  163.6561 C.ar    1  UNL1        0.0352
     15 C         144.5522  143.0104  163.6314 C.ar    1  UNL1        0.0031
     16 C         145.0087  143.6613  164.9034 C.ar    1  UNL1        0.0003
     17 C         144.3309  143.3309  166.2001 C.ar    1  UNL1        0.0062
     18 C         143.1967  142.3497  166.2248 C.ar    1  UNL1        0.0736
     19 C         142.5189  142.0193  167.5215 C.ar    1  UNL1        0.2030
     20 O         142.9753  142.6701  168.7935 O.2     1  UNL1       -0.2863
     21 C         141.3846  141.0381  167.5462 C.ar    1  UNL1        0.0955
     22 C         140.9281  140.3872  166.2742 C.ar    1  UNL1        0.2024
     23 O         141.6059  140.7176  164.9774 O.2     1  UNL1       -0.4398
     24 C         142.7401  141.6988  164.9527 C.ar    1  UNL1        0.1498
     25 N         139.7938  139.4060  166.2989 N.pl3   1  UNL1       -0.2742
     26 C         139.7280  138.3097  165.2772 C.3     1  UNL1        0.1257
     27 C         138.5938  137.3285  165.3019 C.3     1  UNL1        0.1637
     28 O         137.5253  137.4435  166.3483 O.3     1  UNL1       -0.3501
     29 C         137.5910  138.5398  167.3700 C.3     1  UNL1        0.1637
     30 C         138.7252  139.5210  167.3453 C.3     1  UNL1        0.1257
     31 C         142.5775  139.1496  157.4713 C.2     1  UNL1        0.2425
     32 O         144.0192  139.5242  157.6466 O.2     1  UNL1       -0.2733
     33 N         141.5920  139.4258  158.5680 N.am    1  UNL1       -0.2828
     34 H         140.6457  139.1798  158.4529 H       1  UNL1        0.1549
     35 C         142.1210  138.4987  156.1993 C.3     1  UNL1        0.1588
     36 C         142.0301  132.5158  155.7559 C.3     1  UNL1        0.0897
     37 N         142.0528  134.0115  155.8667 N.3     1  UNL1       -0.2691
     38 C         142.9957  134.6784  156.8240 C.3     1  UNL1        0.0897
     39 C         143.0184  136.1741  156.9349 C.3     1  UNL1        0.0900
     40 N         142.0982  137.0030  156.0885 N.3     1  UNL1       -0.2626
     41 C         141.1554  136.3361  155.1312 C.3     1  UNL1        0.0900
     42 C         141.1326  134.8404  155.0203 C.3     1  UNL1        0.0897
@<TRIPOS>BOND
     1    36    37    1
     2    37    38    1
     3    38    39    1
     4    39    40    1
     5    40    35    1
     6    35    31    1
     7    31    32    2
     8    31    33   am
     9    33     1    1
    10     1     2   ar
    11     2     3   ar
    12     3     4   ar
    13     4    14    1
    14    14    15   ar
    15    15    16   ar
    16    16    17   ar
    17    17    18   ar
    18    18    19   ar
    19    19    20    2
    20    19    21   ar
    21    21    22   ar
    22    22    25    1
    23    25    26    1
    24    26    27    1
    25    27    28    1
    26    28    29    1
    27    29    30    1
    28    22    23   ar
    29    23    24   ar
    30     4     5   ar
    31     5     6   ar
    32     6     7   ar
    33     7     8   ar
    34     8     9   ar
    35     9    10   ar
    36    10    11   ar
    37    11    12   ar
    38    12    13   ar
    39    40    41    1
    40    41    42    1
    41    42    37    1
    42    13     1   ar
    43    24    14   ar
    44    13     5   ar
    45    24    18   ar
    46    12     7   ar
    47    30    25    1
    48    33    34    1
