@<TRIPOS>MOLECULE
*****
 29 32 0 0 0
SMALL
GASTEIGER

@<TRIPOS>ATOM
      1 C         140.6256  140.6548  169.6120 C.3     1  UNL1        0.0340
      2 C         141.5760  140.0252  168.6370 C.ar    1  UNL1        0.0124
      3 C         142.6939  139.0847  168.9775 C.ar    1  UNL1        0.0923
      4 N         143.3841  138.7039  167.7013 N.ar    1  UNL1       -0.1684
      5 N         142.6928  139.4091  166.5722 N.ar    1  UNL1       -0.2294
      6 C         141.5754  140.2257  167.1505 C.ar    1  UNL1        0.0800
      7 C         143.0554  139.3142  165.1197 C.ar    1  UNL1        0.0933
      8 C         144.1280  140.1979  164.5552 C.ar    1  UNL1        0.0209
      9 C         144.4905  140.1031  163.1028 C.ar    1  UNL1        0.0130
     10 C         143.7805  139.1246  162.2149 C.ar    1  UNL1        0.0586
     11 CL        144.1431  139.0298  160.7624 Cl      1  UNL1       -0.0822
     12 C         142.7079  138.2410  162.7794 C.ar    1  UNL1        0.0243
     13 C         142.3453  138.3358  164.2318 C.ar    1  UNL1        0.0761
     14 CL        141.2727  137.4521  164.7962 Cl      1  UNL1       -0.0806
     15 C         140.6243  141.0908  166.3779 C.ar    1  UNL1        0.0175
     16 C         140.8659  142.5680  166.2785 C.ar    1  UNL1        0.0024
     17 C         139.9148  143.4332  165.5060 C.ar    1  UNL1        0.0114
     18 C         138.7221  142.8213  164.8328 C.ar    1  UNL1        0.0577
     19 CL        137.7710  143.6865  164.0603 Cl      1  UNL1       -0.0822
     20 C         138.4805  141.3443  164.9323 C.ar    1  UNL1        0.0114
     21 C         139.4316  140.4791  165.7048 C.ar    1  UNL1        0.0024
     22 C         143.0576  138.6086  170.3526 C.3     1  UNL1        0.1166
     23 N         143.2029  137.1405  170.6239 N.3     1  UNL1       -0.2935
     24 H         143.2234  136.6740  169.7170 H       1  UNL1        0.1236
     25 C         144.3838  136.6342  171.3980 C.3     1  UNL1        0.0543
     26 C         145.4319  137.4787  172.0602 C.3     1  UNL1        0.0157
     27 C         146.4197  136.5609  172.7172 C.3     1  UNL1        0.0014
     28 C         145.9823  135.1492  172.4611 C.3     1  UNL1        0.0014
     29 C         144.7240  135.1945  171.6458 C.3     1  UNL1        0.0157
@<TRIPOS>BOND
     1     1     2    1
     2     2     3   ar
     3     3    22    1
     4    22    23    1
     5    23    25    1
     6    25    26    1
     7    26    27    1
     8    27    28    1
     9    28    29    1
    10     3     4   ar
    11     4     5   ar
    12     5     7    1
    13     7     8   ar
    14     8     9   ar
    15     9    10   ar
    16    10    11    1
    17    10    12   ar
    18    12    13   ar
    19    13    14    1
    20     5     6   ar
    21     6    15    1
    22    15    16   ar
    23    16    17   ar
    24    17    18   ar
    25    18    19    1
    26    18    20   ar
    27    20    21   ar
    28     6     2   ar
    29    21    15   ar
    30    29    25    1
    31    13     7   ar
    32    23    24    1
@<TRIPOS>MOLECULE
*****
 29 32 0 0 0
SMALL
GASTEIGER

@<TRIPOS>ATOM
      1 C         140.6764  140.9160  169.9702 C.3     1  UNL1        0.0340
      2 C         139.7831  140.2620  168.9581 C.ar    1  UNL1        0.0124
      3 C         138.4703  139.5940  169.2417 C.ar    1  UNL1        0.0923
      4 N         137.9217  139.0803  167.9435 N.ar    1  UNL1       -0.1684
      5 N         138.8954  139.4309  166.8577 N.ar    1  UNL1       -0.2294
      6 C         140.0458  140.1612  167.4847 C.ar    1  UNL1        0.0800
      7 C         138.7451  139.1078  165.4006 C.ar    1  UNL1        0.0933
      8 C         139.0076  137.7147  164.9103 C.ar    1  UNL1        0.0209
      9 C         138.8572  137.3916  163.4533 C.ar    1  UNL1        0.0130
     10 C         138.4444  138.4616  162.4865 C.ar    1  UNL1        0.0586
     11 CL        138.2941  138.1386  161.0294 Cl      1  UNL1       -0.0822
     12 C         138.1819  139.8547  162.9768 C.ar    1  UNL1        0.0243
     13 C         138.3323  140.1778  164.4338 C.ar    1  UNL1        0.0761
     14 CL        138.0698  141.5709  164.9241 Cl      1  UNL1       -0.0806
     15 C         141.2479  140.6967  166.7649 C.ar    1  UNL1        0.0175
     16 C         142.3159  139.7579  166.2873 C.ar    1  UNL1        0.0024
     17 C         143.5180  140.2934  165.5674 C.ar    1  UNL1        0.0114
     18 C         143.6521  141.7676  165.3250 C.ar    1  UNL1        0.0577
     19 CL        144.8542  142.3031  164.6052 Cl      1  UNL1       -0.0822
     20 C         142.5841  142.7063  165.8026 C.ar    1  UNL1        0.0114
     21 C         141.3820  142.1708  166.5225 C.ar    1  UNL1        0.0024
     22 C         137.8203  139.4626  170.5871 C.3     1  UNL1        0.1166
     23 N         136.4578  138.8465  170.7048 N.3     1  UNL1       -0.2935
     24 H         136.2967  138.3218  169.8451 H       1  UNL1        0.1236
     25 C         136.1500  137.9187  171.8426 C.3     1  UNL1        0.0543
     26 C         134.9416  137.9812  172.7291 C.3     1  UNL1        0.0157
     27 C         135.0414  136.8666  173.7280 C.3     1  UNL1        0.0014
     28 C         136.3114  136.1153  173.4589 C.3     1  UNL1        0.0014
     29 C         136.9966  136.7655  172.2936 C.3     1  UNL1        0.0157
@<TRIPOS>BOND
     1     1     2    1
     2     2     3   ar
     3     3    22    1
     4    22    23    1
     5    23    25    1
     6    25    26    1
     7    26    27    1
     8    27    28    1
     9    28    29    1
    10     3     4   ar
    11     4     5   ar
    12     5     7    1
    13     7     8   ar
    14     8     9   ar
    15     9    10   ar
    16    10    11    1
    17    10    12   ar
    18    12    13   ar
    19    13    14    1
    20     5     6   ar
    21     6    15    1
    22    15    16   ar
    23    16    17   ar
    24    17    18   ar
    25    18    19    1
    26    18    20   ar
    27    20    21   ar
    28     6     2   ar
    29    21    15   ar
    30    29    25    1
    31    13     7   ar
    32    23    24    1
@<TRIPOS>MOLECULE
*****
 29 32 0 0 0
SMALL
GASTEIGER

@<TRIPOS>ATOM
      1 C         143.9776  137.7751  166.9610 C.3     1  UNL1        0.0340
      2 C         142.9415  138.8595  166.9366 C.ar    1  UNL1        0.0124
      3 C         142.4171  139.6050  168.1280 C.ar    1  UNL1        0.0923
      4 N         141.3995  140.5950  167.6442 N.ar    1  UNL1       -0.1684
      5 N         141.2949  140.4615  166.1538 N.ar    1  UNL1       -0.2294
      6 C         142.2480  139.3890  165.7165 C.ar    1  UNL1        0.0800
      7 C         140.3952  141.2604  165.2579 C.ar    1  UNL1        0.0933
      8 C         138.9659  140.8468  165.0688 C.ar    1  UNL1        0.0209
      9 C         138.0662  141.6456  164.1730 C.ar    1  UNL1        0.0130
     10 C         138.5959  142.8581  163.4664 C.ar    1  UNL1        0.0586
     11 CL        137.6962  143.6570  162.5706 Cl      1  UNL1       -0.0822
     12 C         140.0253  143.2717  163.6556 C.ar    1  UNL1        0.0243
     13 C         140.9250  142.4729  164.5514 C.ar    1  UNL1        0.0761
     14 CL        142.3543  142.8865  164.7405 Cl      1  UNL1       -0.0806
     15 C         142.4687  138.9269  164.3066 C.ar    1  UNL1        0.0175
     16 C         141.4555  138.0448  163.6392 C.ar    1  UNL1        0.0024
     17 C         141.6762  137.5827  162.2293 C.ar    1  UNL1        0.0114
     18 C         142.9101  138.0026  161.4868 C.ar    1  UNL1        0.0577
     19 CL        143.1309  137.5406  160.0770 Cl      1  UNL1       -0.0822
     20 C         143.9233  138.8846  162.1543 C.ar    1  UNL1        0.0114
     21 C         143.7025  139.3467  163.5642 C.ar    1  UNL1        0.0024
     22 C         142.8367  139.3968  169.5530 C.3     1  UNL1        0.1166
     23 N         142.9364  140.5685  170.4842 N.3     1  UNL1       -0.2935
     24 H         143.8433  141.0032  170.3144 H       1  UNL1        0.1236
     25 C         141.9131  141.6636  170.4239 C.3     1  UNL1        0.0543
     26 C         140.4932  141.5707  170.8985 C.3     1  UNL1        0.0157
     27 C         139.8326  142.8936  170.6463 C.3     1  UNL1        0.0014
     28 C         140.8443  143.8041  170.0159 C.3     1  UNL1        0.0014
     29 C         142.1301  143.0439  169.8784 C.3     1  UNL1        0.0157
@<TRIPOS>BOND
     1     1     2    1
     2     2     3   ar
     3     3    22    1
     4    22    23    1
     5    23    25    1
     6    25    26    1
     7    26    27    1
     8    27    28    1
     9    28    29    1
    10     3     4   ar
    11     4     5   ar
    12     5     7    1
    13     7     8   ar
    14     8     9   ar
    15     9    10   ar
    16    10    11    1
    17    10    12   ar
    18    12    13   ar
    19    13    14    1
    20     5     6   ar
    21     6    15    1
    22    15    16   ar
    23    16    17   ar
    24    17    18   ar
    25    18    19    1
    26    18    20   ar
    27    20    21   ar
    28     6     2   ar
    29    21    15   ar
    30    29    25    1
    31    13     7   ar
    32    23    24    1
@<TRIPOS>MOLECULE
*****
 29 32 0 0 0
SMALL
GASTEIGER

@<TRIPOS>ATOM
      1 C         143.3263  144.7335  164.2212 C.3     1  UNL1        0.0340
      2 C         142.4811  143.5638  163.8117 C.ar    1  UNL1        0.0124
      3 C         142.1311  143.1787  162.4048 C.ar    1  UNL1        0.0923
      4 N         141.2713  141.9508  162.4607 N.ar    1  UNL1       -0.1684
      5 N         141.0900  141.5771  163.9021 N.ar    1  UNL1       -0.2294
      6 C         141.8378  142.5740  164.7370 C.ar    1  UNL1        0.0800
      7 C         140.2998  140.4111  164.4180 C.ar    1  UNL1        0.0933
      8 C         140.9409  139.0593  164.5256 C.ar    1  UNL1        0.0209
      9 C         140.1507  137.8934  165.0415 C.ar    1  UNL1        0.0130
     10 C         138.7194  138.0792  165.4496 C.ar    1  UNL1        0.0586
     11 CL        137.9291  136.9133  165.9655 Cl      1  UNL1       -0.0822
     12 C         138.0782  139.4310  165.3420 C.ar    1  UNL1        0.0243
     13 C         138.8684  140.5970  164.8261 C.ar    1  UNL1        0.0761
     14 CL        138.2273  141.9488  164.7185 Cl      1  UNL1       -0.0806
     15 C         141.9265  142.5801  166.2343 C.ar    1  UNL1        0.0175
     16 C         140.7052  142.8666  167.0569 C.ar    1  UNL1        0.0024
     17 C         140.7940  142.8726  168.5542 C.ar    1  UNL1        0.0114
     18 C         142.1039  142.5922  169.2291 C.ar    1  UNL1        0.0577
     19 CL        142.1927  142.5983  170.7265 Cl      1  UNL1       -0.0822
     20 C         143.3251  142.3057  168.4066 C.ar    1  UNL1        0.0114
     21 C         143.2364  142.2996  166.9092 C.ar    1  UNL1        0.0024
     22 C         142.5646  143.8955  161.1606 C.3     1  UNL1        0.1166
     23 N         141.7644  145.0550  160.6457 N.3     1  UNL1       -0.2935
     24 H         142.3665  145.8764  160.7019 H       1  UNL1        0.1236
     25 C         141.2061  145.0219  159.2539 C.3     1  UNL1        0.0543
     26 C         140.0126  144.2339  158.8012 C.3     1  UNL1        0.0157
     27 C         139.8121  144.4958  157.3379 C.3     1  UNL1        0.0014
     28 C         140.8815  145.4457  156.8862 C.3     1  UNL1        0.0014
     29 C         141.7431  145.7708  158.0704 C.3     1  UNL1        0.0157
@<TRIPOS>BOND
     1     1     2    1
     2     2     3   ar
     3     3    22    1
     4    22    23    1
     5    23    25    1
     6    25    26    1
     7    26    27    1
     8    27    28    1
     9    28    29    1
    10     3     4   ar
    11     4     5   ar
    12     5     7    1
    13     7     8   ar
    14     8     9   ar
    15     9    10   ar
    16    10    11    1
    17    10    12   ar
    18    12    13   ar
    19    13    14    1
    20     5     6   ar
    21     6    15    1
    22    15    16   ar
    23    16    17   ar
    24    17    18   ar
    25    18    19    1
    26    18    20   ar
    27    20    21   ar
    28     6     2   ar
    29    21    15   ar
    30    29    25    1
    31    13     7   ar
    32    23    24    1
@<TRIPOS>MOLECULE
*****
 29 32 0 0 0
SMALL
GASTEIGER

@<TRIPOS>ATOM
      1 C         137.7750  138.3686  166.9388 C.3     1  UNL1        0.0340
      2 C         138.7071  139.5397  167.0380 C.ar    1  UNL1        0.0124
      3 C         139.1087  140.2424  168.3010 C.ar    1  UNL1        0.0923
      4 N         140.0511  141.3506  167.9352 N.ar    1  UNL1       -0.1684
      5 N         140.2319  141.3328  166.4462 N.ar    1  UNL1       -0.2294
      6 C         139.4013  140.2136  165.8918 C.ar    1  UNL1        0.0800
      7 C         141.0923  142.2698  165.6513 C.ar    1  UNL1        0.0933
      8 C         142.5638  142.0092  165.5217 C.ar    1  UNL1        0.0209
      9 C         143.4242  142.9461  164.7268 C.ar    1  UNL1        0.0130
     10 C         142.8131  144.1435  164.0615 C.ar    1  UNL1        0.0586
     11 CL        143.6736  145.0805  163.2666 Cl      1  UNL1       -0.0822
     12 C         141.3416  144.4041  164.1910 C.ar    1  UNL1        0.0243
     13 C         140.4812  143.4672  164.9859 C.ar    1  UNL1        0.0761
     14 CL        139.0097  143.7277  165.1155 Cl      1  UNL1       -0.0806
     15 C         139.2852  139.8348  164.4450 C.ar    1  UNL1        0.0175
     16 C         138.1645  140.3849  163.6134 C.ar    1  UNL1        0.0024
     17 C         138.0484  140.0060  162.1667 C.ar    1  UNL1        0.0114
     18 C         139.0528  139.0772  161.5515 C.ar    1  UNL1        0.0577
     19 CL        138.9367  138.6984  160.1048 Cl      1  UNL1       -0.0822
     20 C         140.1735  138.5272  162.3832 C.ar    1  UNL1        0.0114
     21 C         140.2896  138.9060  163.8299 C.ar    1  UNL1        0.0024
     22 C         138.6487  139.8975  169.6864 C.3     1  UNL1        0.1166
     23 N         139.6454  139.7875  170.8019 N.3     1  UNL1       -0.2935
     24 H         139.8552  138.7955  170.9127 H       1  UNL1        0.1236
     25 C         140.9617  140.5001  170.7045 C.3     1  UNL1        0.0543
     26 C         142.2486  139.9111  170.2074 C.3     1  UNL1        0.0157
     27 C         143.3045  140.9738  170.2827 C.3     1  UNL1        0.0014
     28 C         142.6703  142.2197  170.8264 C.3     1  UNL1        0.0014
     29 C         141.2224  141.9269  171.0870 C.3     1  UNL1        0.0157
@<TRIPOS>BOND
     1     1     2    1
     2     2     3   ar
     3     3    22    1
     4    22    23    1
     5    23    25    1
     6    25    26    1
     7    26    27    1
     8    27    28    1
     9    28    29    1
    10     3     4   ar
    11     4     5   ar
    12     5     7    1
    13     7     8   ar
    14     8     9   ar
    15     9    10   ar
    16    10    11    1
    17    10    12   ar
    18    12    13   ar
    19    13    14    1
    20     5     6   ar
    21     6    15    1
    22    15    16   ar
    23    16    17   ar
    24    17    18   ar
    25    18    19    1
    26    18    20   ar
    27    20    21   ar
    28     6     2   ar
    29    21    15   ar
    30    29    25    1
    31    13     7   ar
    32    23    24    1
@<TRIPOS>MOLECULE
*****
 29 32 0 0 0
SMALL
GASTEIGER

@<TRIPOS>ATOM
      1 C         143.0059  144.7595  164.2118 C.3     1  UNL1        0.0340
      2 C         142.1587  143.5780  163.8425 C.ar    1  UNL1        0.0124
      3 C         141.7371  143.1947  162.4549 C.ar    1  UNL1        0.0923
      4 N         140.9023  141.9522  162.5508 N.ar    1  UNL1       -0.1684
      5 N         140.8080  141.5676  163.9976 N.ar    1  UNL1       -0.2294
      6 C         141.5845  142.5724  164.7959 C.ar    1  UNL1        0.0800
      7 C         140.0671  140.3856  164.5492 C.ar    1  UNL1        0.0933
      8 C         138.7552  140.5827  165.2492 C.ar    1  UNL1        0.0209
      9 C         138.0144  139.4009  165.8008 C.ar    1  UNL1        0.0130
     10 C         138.5855  138.0218  165.6524 C.ar    1  UNL1        0.0586
     11 CL        137.8447  136.8399  166.2040 Cl      1  UNL1       -0.0822
     12 C         139.8974  137.8247  164.9524 C.ar    1  UNL1        0.0243
     13 C         140.6383  139.0066  164.4008 C.ar    1  UNL1        0.0761
     14 CL        141.9502  138.8094  163.7008 Cl      1  UNL1       -0.0806
     15 C         141.7566  142.5717  166.2860 C.ar    1  UNL1        0.0175
     16 C         143.0914  142.2433  166.8866 C.ar    1  UNL1        0.0024
     17 C         143.2635  142.2427  168.3767 C.ar    1  UNL1        0.0114
     18 C         142.1010  142.5704  169.2662 C.ar    1  UNL1        0.0577
     19 CL        142.2731  142.5697  170.7563 Cl      1  UNL1       -0.0822
     20 C         140.7663  142.8988  168.6656 C.ar    1  UNL1        0.0114
     21 C         140.5942  142.8994  167.1755 C.ar    1  UNL1        0.0024
     22 C         142.0885  143.9256  161.1931 C.3     1  UNL1        0.1166
     23 N         143.2285  143.4486  160.3428 N.3     1  UNL1       -0.2935
     24 H         144.0870  143.7276  160.8178 H       1  UNL1        0.1236
     25 C         143.3656  141.9898  160.0219 C.3     1  UNL1        0.0543
     26 C         144.0077  140.9517  160.8938 C.3     1  UNL1        0.0157
     27 C         143.9236  139.6333  160.1835 C.3     1  UNL1        0.0014
     28 C         143.2294  139.8564  158.8727 C.3     1  UNL1        0.0014
     29 C         142.8846  141.3128  158.7728 C.3     1  UNL1        0.0157
@<TRIPOS>BOND
     1     1     2    1
     2     2     3   ar
     3     3    22    1
     4    22    23    1
     5    23    25    1
     6    25    26    1
     7    26    27    1
     8    27    28    1
     9    28    29    1
    10     3     4   ar
    11     4     5   ar
    12     5     7    1
    13     7     8   ar
    14     8     9   ar
    15     9    10   ar
    16    10    11    1
    17    10    12   ar
    18    12    13   ar
    19    13    14    1
    20     5     6   ar
    21     6    15    1
    22    15    16   ar
    23    16    17   ar
    24    17    18   ar
    25    18    19    1
    26    18    20   ar
    27    20    21   ar
    28     6     2   ar
    29    21    15   ar
    30    29    25    1
    31    13     7   ar
    32    23    24    1
@<TRIPOS>MOLECULE
*****
 29 32 0 0 0
SMALL
GASTEIGER

@<TRIPOS>ATOM
      1 C         139.9541  140.2908  168.2227 C.3     1  UNL1        0.0340
      2 C         141.1707  140.2390  167.3468 C.ar    1  UNL1        0.0124
      3 C         142.4277  139.4702  167.6282 C.ar    1  UNL1        0.0923
      4 N         143.3777  139.7029  166.4910 N.ar    1  UNL1       -0.1684
      5 N         142.7081  140.6156  165.5068 N.ar    1  UNL1       -0.2294
      6 C         141.3441  140.9469  166.0357 C.ar    1  UNL1        0.0800
      7 C         143.2987  141.1101  164.2197 C.ar    1  UNL1        0.0933
      8 C         143.1190  140.3178  162.9588 C.ar    1  UNL1        0.0209
      9 C         143.7096  140.8122  161.6717 C.ar    1  UNL1        0.0130
     10 C         144.4800  142.0990  161.6455 C.ar    1  UNL1        0.0586
     11 CL        145.0707  142.5935  160.3584 Cl      1  UNL1       -0.0822
     12 C         144.6597  142.8913  162.9064 C.ar    1  UNL1        0.0243
     13 C         144.0691  142.3969  164.1935 C.ar    1  UNL1        0.0761
     14 CL        144.2488  143.1892  165.4545 Cl      1  UNL1       -0.0806
     15 C         140.3312  141.8309  165.3704 C.ar    1  UNL1        0.0175
     16 C         140.4824  143.3221  165.4308 C.ar    1  UNL1        0.0024
     17 C         139.4695  144.2060  164.7654 C.ar    1  UNL1        0.0114
     18 C         138.3055  143.5989  164.0398 C.ar    1  UNL1        0.0577
     19 CL        137.2926  144.4829  163.3745 Cl      1  UNL1       -0.0822
     20 C         138.1544  142.1078  163.9795 C.ar    1  UNL1        0.0114
     21 C         139.1672  141.2238  164.6448 C.ar    1  UNL1        0.0024
     22 C         142.6886  138.6182  168.8349 C.3     1  UNL1        0.1166
     23 N         143.1610  139.2497  170.1108 N.3     1  UNL1       -0.2935
     24 H         144.1777  139.1683  170.1209 H       1  UNL1        0.1236
     25 C         142.8387  140.6856  170.4011 C.3     1  UNL1        0.0543
     26 C         143.5873  141.8789  169.8856 C.3     1  UNL1        0.0157
     27 C         142.9225  143.1111  170.4238 C.3     1  UNL1        0.0014
     28 C         141.7630  142.6794  171.2720 C.3     1  UNL1        0.0014
     29 C         141.7113  141.1803  171.2579 C.3     1  UNL1        0.0157
@<TRIPOS>BOND
     1     1     2    1
     2     2     3   ar
     3     3    22    1
     4    22    23    1
     5    23    25    1
     6    25    26    1
     7    26    27    1
     8    27    28    1
     9    28    29    1
    10     3     4   ar
    11     4     5   ar
    12     5     7    1
    13     7     8   ar
    14     8     9   ar
    15     9    10   ar
    16    10    11    1
    17    10    12   ar
    18    12    13   ar
    19    13    14    1
    20     5     6   ar
    21     6    15    1
    22    15    16   ar
    23    16    17   ar
    24    17    18   ar
    25    18    19    1
    26    18    20   ar
    27    20    21   ar
    28     6     2   ar
    29    21    15   ar
    30    29    25    1
    31    13     7   ar
    32    23    24    1
@<TRIPOS>MOLECULE
*****
 29 32 0 0 0
SMALL
GASTEIGER

@<TRIPOS>ATOM
      1 C         139.3101  139.3881  158.3528 C.3     1  UNL1        0.0340
      2 C         138.9842  140.6810  159.0399 C.ar    1  UNL1        0.0124
      3 C         138.4682  141.9250  158.3792 C.ar    1  UNL1        0.0923
      4 N         138.2821  142.9697  159.4393 N.ar    1  UNL1       -0.1684
      5 N         138.6830  142.3715  160.7552 N.ar    1  UNL1       -0.2294
      6 C         139.1169  140.9570  160.5083 C.ar    1  UNL1        0.0800
      7 C         138.6549  143.0659  162.0845 C.ar    1  UNL1        0.0933
      8 C         137.6167  142.6960  163.1021 C.ar    1  UNL1        0.0209
      9 C         137.5886  143.3904  164.4314 C.ar    1  UNL1        0.0130
     10 C         138.5986  144.4546  164.7431 C.ar    1  UNL1        0.0586
     11 CL        138.5705  145.1490  166.0724 Cl      1  UNL1       -0.0822
     12 C         139.6368  144.8245  163.7255 C.ar    1  UNL1        0.0243
     13 C         139.6649  144.1301  162.3963 C.ar    1  UNL1        0.0761
     14 CL        140.7031  144.5000  161.3787 Cl      1  UNL1       -0.0806
     15 C         139.5989  139.9885  161.5474 C.ar    1  UNL1        0.0175
     16 C         138.6945  138.8924  162.0278 C.ar    1  UNL1        0.0024
     17 C         139.1765  137.9239  163.0669 C.ar    1  UNL1        0.0114
     18 C         140.5628  138.0515  163.6256 C.ar    1  UNL1        0.0577
     19 CL        141.0448  137.0830  164.6646 Cl      1  UNL1       -0.0822
     20 C         141.4670  139.1476  163.1451 C.ar    1  UNL1        0.0114
     21 C         140.9850  140.1161  162.1061 C.ar    1  UNL1        0.0024
     22 C         138.1877  142.0944  156.9155 C.3     1  UNL1        0.1166
     23 N         136.8697  142.6503  156.4639 N.3     1  UNL1       -0.2935
     24 H         137.0759  143.4715  155.8951 H       1  UNL1        0.1236
     25 C         135.9292  141.7963  155.6664 C.3     1  UNL1        0.0543
     26 C         135.6145  141.9557  154.2084 C.3     1  UNL1        0.0157
     27 C         134.6291  140.8908  153.8277 C.3     1  UNL1        0.0014
     28 C         134.3347  140.0732  155.0504 C.3     1  UNL1        0.0014
     29 C         135.1383  140.6328  156.1867 C.3     1  UNL1        0.0157
@<TRIPOS>BOND
     1     1     2    1
     2     2     3   ar
     3     3    22    1
     4    22    23    1
     5    23    25    1
     6    25    26    1
     7    26    27    1
     8    27    28    1
     9    28    29    1
    10     3     4   ar
    11     4     5   ar
    12     5     7    1
    13     7     8   ar
    14     8     9   ar
    15     9    10   ar
    16    10    11    1
    17    10    12   ar
    18    12    13   ar
    19    13    14    1
    20     5     6   ar
    21     6    15    1
    22    15    16   ar
    23    16    17   ar
    24    17    18   ar
    25    18    19    1
    26    18    20   ar
    27    20    21   ar
    28     6     2   ar
    29    21    15   ar
    30    29    25    1
    31    13     7   ar
    32    23    24    1
@<TRIPOS>MOLECULE
*****
 29 32 0 0 0
SMALL
GASTEIGER

@<TRIPOS>ATOM
      1 C         143.3833  138.1607  165.8599 C.3     1  UNL1        0.0340
      2 C         142.7905  139.5368  165.9319 C.ar    1  UNL1        0.0124
      3 C         142.4412  140.2818  167.1861 C.ar    1  UNL1        0.0923
      4 N         141.8778  141.6148  166.7916 N.ar    1  UNL1       -0.1684
      5 N         141.8790  141.6937  165.2936 N.ar    1  UNL1       -0.2294
      6 C         142.4431  140.4094  164.7623 C.ar    1  UNL1        0.0800
      7 C         141.4002  142.8533  164.4714 C.ar    1  UNL1        0.0933
      8 C         139.9742  142.9068  164.0090 C.ar    1  UNL1        0.0209
      9 C         139.4953  144.0663  163.1868 C.ar    1  UNL1        0.0130
     10 C         140.4424  145.1724  162.8269 C.ar    1  UNL1        0.0586
     11 CL        139.9636  146.3320  162.0047 Cl      1  UNL1       -0.0822
     12 C         141.8684  145.1189  163.2893 C.ar    1  UNL1        0.0243
     13 C         142.3473  143.9594  164.1115 C.ar    1  UNL1        0.0761
     14 CL        143.7732  143.9059  164.5738 Cl      1  UNL1       -0.0806
     15 C         142.6274  140.0591  163.3155 C.ar    1  UNL1        0.0175
     16 C         141.4897  139.4692  162.5359 C.ar    1  UNL1        0.0024
     17 C         141.6740  139.1189  161.0890 C.ar    1  UNL1        0.0114
     18 C         142.9960  139.3585  160.4218 C.ar    1  UNL1        0.0577
     19 CL        143.1803  139.0082  158.9750 Cl      1  UNL1       -0.0822
     20 C         144.1336  139.9483  161.2014 C.ar    1  UNL1        0.0114
     21 C         143.9493  140.2986  162.6483 C.ar    1  UNL1        0.0024
     22 C         142.6232  139.7816  168.5884 C.3     1  UNL1        0.1166
     23 N         142.7818  140.7562  169.7176 N.3     1  UNL1       -0.2935
     24 H         143.6425  141.2741  169.5409 H       1  UNL1        0.1236
     25 C         141.7122  141.7729  169.9866 C.3     1  UNL1        0.0543
     26 C         140.3280  141.4849  170.4880 C.3     1  UNL1        0.0157
     27 C         139.5994  142.7901  170.6127 C.3     1  UNL1        0.0014
     28 C         140.5331  143.8847  170.1884 C.3     1  UNL1        0.0014
     29 C         141.8389  143.2560  169.8015 C.3     1  UNL1        0.0157
@<TRIPOS>BOND
     1     1     2    1
     2     2     3   ar
     3     3    22    1
     4    22    23    1
     5    23    25    1
     6    25    26    1
     7    26    27    1
     8    27    28    1
     9    28    29    1
    10     3     4   ar
    11     4     5   ar
    12     5     7    1
    13     7     8   ar
    14     8     9   ar
    15     9    10   ar
    16    10    11    1
    17    10    12   ar
    18    12    13   ar
    19    13    14    1
    20     5     6   ar
    21     6    15    1
    22    15    16   ar
    23    16    17   ar
    24    17    18   ar
    25    18    19    1
    26    18    20   ar
    27    20    21   ar
    28     6     2   ar
    29    21    15   ar
    30    29    25    1
    31    13     7   ar
    32    23    24    1
