@<TRIPOS>MOLECULE
*****
 35 39 0 0 0
SMALL
GASTEIGER

@<TRIPOS>ATOM
      1 N         141.8152  140.7814  161.2310 N.3     1  UNL1       -0.2689
      2 C         141.1704  141.6499  162.2702 C.3     1  UNL1        0.0724
      3 C         141.3342  141.3254  163.7255 C.3     1  UNL1        0.0175
      4 C         142.1427  140.1324  164.1415 C.3     1  UNL1        0.0060
      5 C         142.7875  139.2640  163.1023 C.3     1  UNL1        0.0175
      6 C         142.6238  139.5885  161.6471 C.3     1  UNL1        0.0724
      7 C         141.4979  141.0009  165.1808 C.3     1  UNL1        0.0217
      8 C         141.6617  140.6764  166.6361 C.3     1  UNL1        0.0938
      9 N         142.4702  139.4834  167.0521 N.am    1  UNL1       -0.2748
     10 C         142.6340  139.1589  168.5075 C.2     1  UNL1        0.2669
     11 O         143.4426  137.9660  168.9235 O.2     1  UNL1       -0.2683
     12 C         143.1150  138.6150  166.0129 C.3     1  UNL1        0.0938
     13 C         142.9513  138.9395  164.5576 C.3     1  UNL1        0.0217
     14 C         141.9892  140.0274  169.5467 C.ar    1  UNL1        0.1380
     15 C         142.7038  141.2440  170.0559 C.ar    1  UNL1        0.0445
     16 C         142.0590  142.1124  171.0952 C.ar    1  UNL1        0.1024
     17 N         140.6995  141.7643  171.6252 N.ar    1  UNL1       -0.2224
     18 C         139.9850  140.5477  171.1159 C.ar    1  UNL1        0.1990
     19 N         140.6298  139.6792  170.0766 N.ar    1  UNL1       -0.2193
     20 C         141.6514  141.1059  159.7756 C.3     1  UNL1        0.1022
     21 C         143.8171  142.3775  159.1101 C.ar    1  UNL1        0.1427
     22 C         145.0252  142.5142  158.2316 C.ar    1  UNL1        0.0372
     23 C         145.2758  141.5162  157.1402 C.ar    1  UNL1        0.0031
     24 C         144.3182  140.3814  156.9273 C.ar    1  UNL1       -0.0001
     25 C         143.1101  140.2446  157.8057 C.ar    1  UNL1        0.0001
     26 C         142.8595  141.2427  158.8972 C.ar    1  UNL1        0.0284
     27 O         143.5666  143.3755  160.2015 O.3     1  UNL1       -0.4507
     28 C         143.6806  144.0131  162.7175 C.ar    1  UNL1        0.1730
     29 C         144.2125  143.7644  164.0978 C.ar    1  UNL1        0.0401
     30 C         145.1621  142.6294  164.3424 C.ar    1  UNL1        0.0033
     31 C         145.5800  141.7430  163.2067 C.ar    1  UNL1        0.0033
     32 C         145.0481  141.9917  161.8264 C.ar    1  UNL1        0.0406
     33 C         144.0984  143.1268  161.5818 C.ar    1  UNL1        0.1789
     34 C         141.4665  145.2538  163.2730 C.3     1  UNL1        0.2526
     35 O         142.7309  145.1482  162.4729 O.3     1  UNL1       -0.4684
@<TRIPOS>BOND
     1    34    35    1
     2    35    28    1
     3    28    29   ar
     4    29    30   ar
     5    30    31   ar
     6    31    32   ar
     7    32    33   ar
     8    33    27    1
     9    27    21    1
    10    21    22   ar
    11    22    23   ar
    12    23    24   ar
    13    24    25   ar
    14    25    26   ar
    15    26    20    1
    16    20     1    1
    17     1     2    1
    18     2     3    1
    19     3     4    1
    20     4     5    1
    21     5     6    1
    22     4     7    1
    23     7     8    1
    24     8     9    1
    25     9    10   am
    26    10    11    2
    27    10    14    1
    28    14    15   ar
    29    15    16   ar
    30    16    17   ar
    31    17    18   ar
    32    18    19   ar
    33     9    12    1
    34    12    13    1
    35    33    28   ar
    36    26    21   ar
    37     6     1    1
    38    19    14   ar
    39    13     4    1
@<TRIPOS>MOLECULE
*****
 35 39 0 0 0
SMALL
GASTEIGER

@<TRIPOS>ATOM
      1 N         142.6888  139.4434  166.3837 N.3     1  UNL1       -0.2689
      2 C         143.2031  140.6009  165.5801 C.3     1  UNL1        0.0724
      3 C         143.2299  140.5212  164.0825 C.3     1  UNL1        0.0175
      4 C         142.7424  139.2840  163.3885 C.3     1  UNL1        0.0060
      5 C         142.2282  138.1265  164.1920 C.3     1  UNL1        0.0175
      6 C         142.2014  138.2062  165.6897 C.3     1  UNL1        0.0724
      7 C         143.2567  140.4415  162.5848 C.3     1  UNL1        0.0217
      8 C         143.2835  140.3617  161.0872 C.3     1  UNL1        0.0938
      9 N         142.7960  139.1245  160.3932 N.am    1  UNL1       -0.2748
     10 C         142.8229  139.0448  158.8955 C.2     1  UNL1        0.2669
     11 O         142.3354  137.8076  158.2014 O.2     1  UNL1       -0.2683
     12 C         142.2818  137.9671  161.1967 C.3     1  UNL1        0.0938
     13 C         142.2550  138.0468  162.6944 C.3     1  UNL1        0.0217
     14 C         143.3371  140.2023  158.0919 C.ar    1  UNL1        0.1380
     15 C         142.4389  141.3658  157.7930 C.ar    1  UNL1        0.0445
     16 C         142.9531  142.5233  156.9894 C.ar    1  UNL1        0.1024
     17 N         144.3657  142.5173  156.4848 N.ar    1  UNL1       -0.2224
     18 C         145.2640  141.3538  156.7837 C.ar    1  UNL1        0.1990
     19 N         144.7497  140.1963  157.5873 N.ar    1  UNL1       -0.2193
     20 C         142.6620  139.5231  167.8814 C.3     1  UNL1        0.1022
     21 C         140.7724  141.1898  168.5150 C.ar    1  UNL1        0.1427
     22 C         140.3268  142.4526  169.1911 C.ar    1  UNL1        0.0372
     23 C         141.3250  143.3112  169.9095 C.ar    1  UNL1        0.0031
     24 C         142.7690  142.9072  169.9518 C.ar    1  UNL1       -0.0001
     25 C         143.2146  141.6445  169.2758 C.ar    1  UNL1        0.0001
     26 C         142.2163  140.7858  168.5574 C.ar    1  UNL1        0.0284
     27 O         139.7741  140.3312  167.7966 O.3     1  UNL1       -0.4507
     28 C         138.8518  139.4795  165.5220 C.ar    1  UNL1        0.1730
     29 C         138.5807  139.7044  164.0640 C.ar    1  UNL1        0.0401
     30 C         138.9606  141.0060  163.4225 C.ar    1  UNL1        0.0033
     31 C         139.6118  142.0827  164.2391 C.ar    1  UNL1        0.0033
     32 C         139.8829  141.8578  165.6971 C.ar    1  UNL1        0.0406
     33 C         139.5029  140.5561  166.3386 C.ar    1  UNL1        0.1789
     34 C         137.3401  138.1284  167.1466 C.3     1  UNL1        0.2526
     35 O         138.4718  138.1779  166.1634 O.3     1  UNL1       -0.4684
@<TRIPOS>BOND
     1    34    35    1
     2    35    28    1
     3    28    29   ar
     4    29    30   ar
     5    30    31   ar
     6    31    32   ar
     7    32    33   ar
     8    33    27    1
     9    27    21    1
    10    21    22   ar
    11    22    23   ar
    12    23    24   ar
    13    24    25   ar
    14    25    26   ar
    15    26    20    1
    16    20     1    1
    17     1     2    1
    18     2     3    1
    19     3     4    1
    20     4     5    1
    21     5     6    1
    22     4     7    1
    23     7     8    1
    24     8     9    1
    25     9    10   am
    26    10    11    2
    27    10    14    1
    28    14    15   ar
    29    15    16   ar
    30    16    17   ar
    31    17    18   ar
    32    18    19   ar
    33     9    12    1
    34    12    13    1
    35    33    28   ar
    36    26    21   ar
    37     6     1    1
    38    19    14   ar
    39    13     4    1
@<TRIPOS>MOLECULE
*****
 35 39 0 0 0
SMALL
GASTEIGER

@<TRIPOS>ATOM
      1 N         141.2677  143.4509  161.1584 N.3     1  UNL1       -0.2689
      2 C         140.9884  144.1922  162.4321 C.3     1  UNL1        0.0724
      3 C         141.2615  143.5398  163.7548 C.3     1  UNL1        0.0175
      4 C         141.8139  142.1461  163.8039 C.3     1  UNL1        0.0060
      5 C         142.0932  141.4048  162.5302 C.3     1  UNL1        0.0175
      6 C         141.8201  142.0572  161.2074 C.3     1  UNL1        0.0724
      7 C         141.5346  142.8874  165.0777 C.3     1  UNL1        0.0217
      8 C         141.8078  142.2350  166.4005 C.3     1  UNL1        0.0938
      9 N         142.3602  140.8413  166.4495 N.am    1  UNL1       -0.2748
     10 C         142.6334  140.1890  167.7724 C.2     1  UNL1        0.2669
     11 O         143.1858  138.7953  167.8214 O.2     1  UNL1       -0.2683
     12 C         142.6395  140.1000  165.1758 C.3     1  UNL1        0.0938
     13 C         142.3664  140.7524  163.8529 C.3     1  UNL1        0.0217
     14 C         142.3541  140.9303  169.0461 C.ar    1  UNL1        0.1380
     15 C         143.2425  142.0643  169.4641 C.ar    1  UNL1        0.0445
     16 C         142.9632  142.8056  170.7378 C.ar    1  UNL1        0.1024
     17 N         141.7954  142.4129  171.5936 N.ar    1  UNL1       -0.2224
     18 C         140.9070  141.2789  171.1755 C.ar    1  UNL1        0.1990
     19 N         141.1863  140.5376  169.9017 N.ar    1  UNL1       -0.2193
     20 C         140.9945  144.1033  159.8355 C.3     1  UNL1        0.1022
     21 C         138.8484  142.8746  159.0390 C.ar    1  UNL1        0.1427
     22 C         138.0970  142.1292  157.9760 C.ar    1  UNL1        0.0372
     23 C         138.7405  141.8671  156.6467 C.ar    1  UNL1        0.0031
     24 C         140.1353  142.3503  156.3802 C.ar    1  UNL1       -0.0001
     25 C         140.8866  143.0957  157.4432 C.ar    1  UNL1        0.0001
     26 C         140.2432  143.3579  158.7726 C.ar    1  UNL1        0.0284
     27 O         138.2049  143.1367  160.3684 O.3     1  UNL1       -0.4507
     28 C         137.8401  142.4108  162.8361 C.ar    1  UNL1        0.1730
     29 C         137.8265  141.3404  163.8869 C.ar    1  UNL1        0.0401
     30 C         138.1640  139.9255  163.5206 C.ar    1  UNL1        0.0033
     31 C         138.5151  139.5810  162.1035 C.ar    1  UNL1        0.0033
     32 C         138.5288  140.6514  161.0528 C.ar    1  UNL1        0.0406
     33 C         138.1913  142.0663  161.4191 C.ar    1  UNL1        0.1789
     34 C         137.8582  144.3540  164.5606 C.3     1  UNL1        0.2526
     35 O         137.5026  143.8257  163.2025 O.3     1  UNL1       -0.4684
@<TRIPOS>BOND
     1    34    35    1
     2    35    28    1
     3    28    29   ar
     4    29    30   ar
     5    30    31   ar
     6    31    32   ar
     7    32    33   ar
     8    33    27    1
     9    27    21    1
    10    21    22   ar
    11    22    23   ar
    12    23    24   ar
    13    24    25   ar
    14    25    26   ar
    15    26    20    1
    16    20     1    1
    17     1     2    1
    18     2     3    1
    19     3     4    1
    20     4     5    1
    21     5     6    1
    22     4     7    1
    23     7     8    1
    24     8     9    1
    25     9    10   am
    26    10    11    2
    27    10    14    1
    28    14    15   ar
    29    15    16   ar
    30    16    17   ar
    31    17    18   ar
    32    18    19   ar
    33     9    12    1
    34    12    13    1
    35    33    28   ar
    36    26    21   ar
    37     6     1    1
    38    19    14   ar
    39    13     4    1
@<TRIPOS>MOLECULE
*****
 35 39 0 0 0
SMALL
GASTEIGER

@<TRIPOS>ATOM
      1 N         142.6689  139.5238  166.2752 N.3     1  UNL1       -0.2689
      2 C         141.9717  138.4715  165.4650 C.3     1  UNL1        0.0724
      3 C         142.0700  138.4896  163.9684 C.3     1  UNL1        0.0175
      4 C         142.8656  139.5601  163.2819 C.3     1  UNL1        0.0060
      5 C         143.5628  140.6124  164.0922 C.3     1  UNL1        0.0175
      6 C         143.4644  140.5943  165.5888 C.3     1  UNL1        0.0724
      7 C         142.1684  138.5077  162.4716 C.3     1  UNL1        0.0217
      8 C         142.2668  138.5259  160.9750 C.3     1  UNL1        0.0938
      9 N         143.0624  139.5963  160.2886 N.am    1  UNL1       -0.2748
     10 C         143.1607  139.6145  158.7919 C.2     1  UNL1        0.2669
     11 O         143.9563  140.6849  158.1055 O.2     1  UNL1       -0.2683
     12 C         143.7595  140.6487  161.0988 C.3     1  UNL1        0.0938
     13 C         143.6612  140.6306  162.5955 C.3     1  UNL1        0.0217
     14 C         142.4635  138.5621  157.9817 C.ar    1  UNL1        0.1380
     15 C         141.0357  138.7589  157.5661 C.ar    1  UNL1        0.0445
     16 C         140.3386  137.7066  156.7559 C.ar    1  UNL1        0.1024
     17 N         141.0692  136.4574  156.3612 N.ar    1  UNL1       -0.2224
     18 C         142.4970  136.2606  156.7767 C.ar    1  UNL1        0.1990
     19 N         143.1941  137.3130  157.5870 N.ar    1  UNL1       -0.2193
     20 C         142.5705  139.5057  167.7719 C.3     1  UNL1        0.1022
     21 C         140.7878  141.2470  168.5066 C.ar    1  UNL1        0.1427
     22 C         140.4227  142.4981  169.2494 C.ar    1  UNL1        0.0372
     23 C         141.4751  143.2586  170.0004 C.ar    1  UNL1        0.0031
     24 C         142.8927  142.7682  170.0085 C.ar    1  UNL1       -0.0001
     25 C         143.2578  141.5173  169.2657 C.ar    1  UNL1        0.0001
     26 C         142.2054  140.7566  168.5147 C.ar    1  UNL1        0.0284
     27 O         139.7354  140.4865  167.7556 O.3     1  UNL1       -0.4507
     28 C         138.5237  139.9499  165.5210 C.ar    1  UNL1        0.1730
     29 C         138.2446  140.2760  164.0837 C.ar    1  UNL1        0.0401
     30 C         138.8980  141.4650  163.4439 C.ar    1  UNL1        0.0033
     31 C         139.8306  142.3278  164.2413 C.ar    1  UNL1        0.0033
     32 C         140.1097  142.0017  165.6786 C.ar    1  UNL1        0.0406
     33 C         139.4563  140.8127  166.3184 C.ar    1  UNL1        0.1789
     34 C         138.3285  137.3756  165.8128 C.3     1  UNL1        0.2526
     35 O         137.8703  138.7609  166.1608 O.3     1  UNL1       -0.4684
@<TRIPOS>BOND
     1    34    35    1
     2    35    28    1
     3    28    29   ar
     4    29    30   ar
     5    30    31   ar
     6    31    32   ar
     7    32    33   ar
     8    33    27    1
     9    27    21    1
    10    21    22   ar
    11    22    23   ar
    12    23    24   ar
    13    24    25   ar
    14    25    26   ar
    15    26    20    1
    16    20     1    1
    17     1     2    1
    18     2     3    1
    19     3     4    1
    20     4     5    1
    21     5     6    1
    22     4     7    1
    23     7     8    1
    24     8     9    1
    25     9    10   am
    26    10    11    2
    27    10    14    1
    28    14    15   ar
    29    15    16   ar
    30    16    17   ar
    31    17    18   ar
    32    18    19   ar
    33     9    12    1
    34    12    13    1
    35    33    28   ar
    36    26    21   ar
    37     6     1    1
    38    19    14   ar
    39    13     4    1
@<TRIPOS>MOLECULE
*****
 35 39 0 0 0
SMALL
GASTEIGER

@<TRIPOS>ATOM
      1 N         142.2237  139.2065  166.0753 N.3     1  UNL1       -0.2689
      2 C         143.3518  139.0170  165.1051 C.3     1  UNL1        0.0724
      3 C         143.0638  138.8610  163.6413 C.3     1  UNL1        0.0175
      4 C         141.6477  138.8946  163.1478 C.3     1  UNL1        0.0060
      5 C         140.5196  139.0841  164.1180 C.3     1  UNL1        0.0175
      6 C         140.8076  139.2400  165.5818 C.3     1  UNL1        0.0724
      7 C         142.7758  138.7051  162.1774 C.3     1  UNL1        0.0217
      8 C         142.4878  138.5491  160.7137 C.3     1  UNL1        0.0938
      9 N         141.0717  138.5827  160.2201 N.am    1  UNL1       -0.2748
     10 C         140.7838  138.4267  158.7563 C.2     1  UNL1        0.2669
     11 O         139.3677  138.4602  158.2628 O.2     1  UNL1       -0.2683
     12 C         139.9436  138.7722  161.1904 C.3     1  UNL1        0.0938
     13 C         140.2316  138.9281  162.6543 C.3     1  UNL1        0.0217
     14 C         141.9119  138.2372  157.7860 C.ar    1  UNL1        0.1380
     15 C         142.6532  139.4285  157.2558 C.ar    1  UNL1        0.0445
     16 C         143.7813  139.2390  156.2855 C.ar    1  UNL1        0.1024
     17 N         144.1681  137.8581  155.8455 N.ar    1  UNL1       -0.2224
     18 C         143.4268  136.6668  156.3757 C.ar    1  UNL1        0.1990
     19 N         142.2987  136.8563  157.3460 N.ar    1  UNL1       -0.2193
     20 C         142.5116  139.3625  167.5392 C.3     1  UNL1        0.1022
     21 C         141.9018  141.8225  168.1103 C.ar    1  UNL1        0.1427
     22 C         141.1242  142.8122  168.9264 C.ar    1  UNL1        0.0372
     23 C         140.1791  142.3316  169.9874 C.ar    1  UNL1        0.0031
     24 C         140.0115  140.8613  170.2323 C.ar    1  UNL1       -0.0001
     25 C         140.7889  139.8715  169.4163 C.ar    1  UNL1        0.0001
     26 C         141.7341  140.3522  168.3552 C.ar    1  UNL1        0.0284
     27 O         142.8469  142.3031  167.0493 O.3     1  UNL1       -0.4507
     28 C         143.3185  142.5195  164.5036 C.ar    1  UNL1        0.1730
     29 C         142.8243  142.7457  163.1056 C.ar    1  UNL1        0.0401
     30 C         141.3644  142.9819  162.8551 C.ar    1  UNL1        0.0033
     31 C         140.3986  142.9919  164.0028 C.ar    1  UNL1        0.0033
     32 C         140.8927  142.7656  165.4009 C.ar    1  UNL1        0.0406
     33 C         142.3527  142.5294  165.6513 C.ar    1  UNL1        0.1789
     34 C         145.6437  141.7167  163.6676 C.3     1  UNL1        0.2526
     35 O         144.7785  142.2833  164.7540 O.3     1  UNL1       -0.4684
@<TRIPOS>BOND
     1    34    35    1
     2    35    28    1
     3    28    29   ar
     4    29    30   ar
     5    30    31   ar
     6    31    32   ar
     7    32    33   ar
     8    33    27    1
     9    27    21    1
    10    21    22   ar
    11    22    23   ar
    12    23    24   ar
    13    24    25   ar
    14    25    26   ar
    15    26    20    1
    16    20     1    1
    17     1     2    1
    18     2     3    1
    19     3     4    1
    20     4     5    1
    21     5     6    1
    22     4     7    1
    23     7     8    1
    24     8     9    1
    25     9    10   am
    26    10    11    2
    27    10    14    1
    28    14    15   ar
    29    15    16   ar
    30    16    17   ar
    31    17    18   ar
    32    18    19   ar
    33     9    12    1
    34    12    13    1
    35    33    28   ar
    36    26    21   ar
    37     6     1    1
    38    19    14   ar
    39    13     4    1
@<TRIPOS>MOLECULE
*****
 35 39 0 0 0
SMALL
GASTEIGER

@<TRIPOS>ATOM
      1 N         142.3082  140.4327  161.2440 N.3     1  UNL1       -0.2689
      2 C         141.6415  141.3696  162.2071 C.3     1  UNL1        0.0724
      3 C         141.7118  141.1044  163.6817 C.3     1  UNL1        0.0175
      4 C         142.4489  139.9023  164.1933 C.3     1  UNL1        0.0060
      5 C         143.1156  138.9654  163.2302 C.3     1  UNL1        0.0175
      6 C         143.0453  139.2306  161.7555 C.3     1  UNL1        0.0724
      7 C         141.7821  140.8392  165.1565 C.3     1  UNL1        0.0217
      8 C         141.8525  140.5740  166.6311 C.3     1  UNL1        0.0938
      9 N         142.5895  139.3719  167.1427 N.am    1  UNL1       -0.2748
     10 C         142.6598  139.1067  168.6174 C.2     1  UNL1        0.2669
     11 O         143.3969  137.9046  169.1290 O.2     1  UNL1       -0.2683
     12 C         143.2562  138.4350  166.1796 C.3     1  UNL1        0.0938
     13 C         143.1859  138.7002  164.7048 C.3     1  UNL1        0.0217
     14 C         141.9931  140.0436  169.5806 C.ar    1  UNL1        0.1380
     15 C         142.7566  141.2025  170.1499 C.ar    1  UNL1        0.0445
     16 C         142.0899  142.1394  171.1130 C.ar    1  UNL1        0.1024
     17 N         140.6596  141.9175  171.5068 N.ar    1  UNL1       -0.2224
     18 C         139.8961  140.7586  170.9375 C.ar    1  UNL1        0.1990
     19 N         140.5629  139.8217  169.9744 N.ar    1  UNL1       -0.2193
     20 C         142.2379  140.6979  159.7692 C.3     1  UNL1        0.1022
     21 C         140.3730  139.1935  158.7647 C.ar    1  UNL1        0.1427
     22 C         139.9483  138.1033  157.8260 C.ar    1  UNL1        0.0372
     23 C         140.9638  137.4273  156.9532 C.ar    1  UNL1        0.0031
     24 C         142.4039  137.8414  157.0191 C.ar    1  UNL1       -0.0001
     25 C         142.8287  138.9316  157.9577 C.ar    1  UNL1        0.0001
     26 C         141.8132  139.6077  158.8306 C.ar    1  UNL1        0.0284
     27 O         139.3575  139.8695  159.6375 O.3     1  UNL1       -0.4507
     28 C         138.2944  140.1989  161.9851 C.ar    1  UNL1        0.1730
     29 C         138.0821  139.7266  163.3929 C.ar    1  UNL1        0.0401
     30 C         138.7207  138.4526  163.8609 C.ar    1  UNL1        0.0033
     31 C         139.5717  137.6508  162.9211 C.ar    1  UNL1        0.0033
     32 C         139.7839  138.1231  161.5133 C.ar    1  UNL1        0.0406
     33 C         139.1453  139.3972  161.0453 C.ar    1  UNL1        0.1789
     34 C         138.0061  142.7738  162.1765 C.3     1  UNL1        0.2526
     35 O         137.6557  141.4729  161.5171 O.3     1  UNL1       -0.4684
@<TRIPOS>BOND
     1    34    35    1
     2    35    28    1
     3    28    29   ar
     4    29    30   ar
     5    30    31   ar
     6    31    32   ar
     7    32    33   ar
     8    33    27    1
     9    27    21    1
    10    21    22   ar
    11    22    23   ar
    12    23    24   ar
    13    24    25   ar
    14    25    26   ar
    15    26    20    1
    16    20     1    1
    17     1     2    1
    18     2     3    1
    19     3     4    1
    20     4     5    1
    21     5     6    1
    22     4     7    1
    23     7     8    1
    24     8     9    1
    25     9    10   am
    26    10    11    2
    27    10    14    1
    28    14    15   ar
    29    15    16   ar
    30    16    17   ar
    31    17    18   ar
    32    18    19   ar
    33     9    12    1
    34    12    13    1
    35    33    28   ar
    36    26    21   ar
    37     6     1    1
    38    19    14   ar
    39    13     4    1
@<TRIPOS>MOLECULE
*****
 35 39 0 0 0
SMALL
GASTEIGER

@<TRIPOS>ATOM
      1 N         142.4707  141.7839  164.8454 N.3     1  UNL1       -0.2689
      2 C         141.9312  140.8570  163.7967 C.3     1  UNL1        0.0724
      3 C         141.4849  141.4016  162.4723 C.3     1  UNL1        0.0175
      4 C         141.5780  142.8731  162.1965 C.3     1  UNL1        0.0060
      5 C         142.1174  143.8000  163.2452 C.3     1  UNL1        0.0175
      6 C         142.5638  143.2554  164.5697 C.3     1  UNL1        0.0724
      7 C         141.0385  141.9462  161.1478 C.3     1  UNL1        0.0217
      8 C         140.5921  142.4908  159.8233 C.3     1  UNL1        0.0938
      9 N         140.6853  143.9623  159.5476 N.am    1  UNL1       -0.2748
     10 C         140.2389  144.5069  158.2231 C.2     1  UNL1        0.2669
     11 O         140.3320  145.9784  157.9474 O.2     1  UNL1       -0.2683
     12 C         141.2247  144.8892  160.5963 C.3     1  UNL1        0.0938
     13 C         141.6711  144.3446  161.9208 C.3     1  UNL1        0.0217
     14 C         139.6994  143.5800  157.1744 C.ar    1  UNL1        0.1380
     15 C         140.5942  143.0892  156.0751 C.ar    1  UNL1        0.0445
     16 C         140.0548  142.1623  155.0264 C.ar    1  UNL1        0.1024
     17 N         138.6204  141.7261  155.0770 N.ar    1  UNL1       -0.2224
     18 C         137.7256  142.2169  156.1763 C.ar    1  UNL1        0.1990
     19 N         138.2652  143.1438  157.2250 N.ar    1  UNL1       -0.2193
     20 C         142.9170  141.2393  166.1699 C.3     1  UNL1        0.1022
     21 C         140.8688  141.8432  167.6498 C.ar    1  UNL1        0.1427
     22 C         140.3054  142.4066  168.9207 C.ar    1  UNL1        0.0372
     23 C         141.2268  142.9294  169.9826 C.ar    1  UNL1        0.0031
     24 C         142.7116  142.8888  169.7737 C.ar    1  UNL1       -0.0001
     25 C         143.2750  142.3255  168.5028 C.ar    1  UNL1        0.0001
     26 C         142.3536  141.8027  167.4408 C.ar    1  UNL1        0.0284
     27 O         139.9474  141.3205  166.5879 O.3     1  UNL1       -0.4507
     28 C         138.3931  141.7467  164.5501 C.ar    1  UNL1        0.1730
     29 C         137.7143  142.6991  163.6109 C.ar    1  UNL1        0.0401
     30 C         137.9109  144.1775  163.7701 C.ar    1  UNL1        0.0033
     31 C         138.7864  144.7037  164.8687 C.ar    1  UNL1        0.0033
     32 C         139.4652  143.7514  165.8079 C.ar    1  UNL1        0.0406
     33 C         139.2686  142.2728  165.6486 C.ar    1  UNL1        0.1789
     34 C         138.2099  139.6528  163.0229 C.3     1  UNL1        0.2526
     35 O         138.1965  140.2682  164.3908 O.3     1  UNL1       -0.4684
@<TRIPOS>BOND
     1    34    35    1
     2    35    28    1
     3    28    29   ar
     4    29    30   ar
     5    30    31   ar
     6    31    32   ar
     7    32    33   ar
     8    33    27    1
     9    27    21    1
    10    21    22   ar
    11    22    23   ar
    12    23    24   ar
    13    24    25   ar
    14    25    26   ar
    15    26    20    1
    16    20     1    1
    17     1     2    1
    18     2     3    1
    19     3     4    1
    20     4     5    1
    21     5     6    1
    22     4     7    1
    23     7     8    1
    24     8     9    1
    25     9    10   am
    26    10    11    2
    27    10    14    1
    28    14    15   ar
    29    15    16   ar
    30    16    17   ar
    31    17    18   ar
    32    18    19   ar
    33     9    12    1
    34    12    13    1
    35    33    28   ar
    36    26    21   ar
    37     6     1    1
    38    19    14   ar
    39    13     4    1
@<TRIPOS>MOLECULE
*****
 35 39 0 0 0
SMALL
GASTEIGER

@<TRIPOS>ATOM
      1 N         139.4227  139.9031  166.2727 N.3     1  UNL1       -0.2689
      2 C         140.5046  139.2871  165.4361 C.3     1  UNL1        0.0724
      3 C         140.3718  139.2564  163.9423 C.3     1  UNL1        0.0175
      4 C         139.1571  139.8416  163.2852 C.3     1  UNL1        0.0060
      5 C         138.0751  140.4576  164.1218 C.3     1  UNL1        0.0175
      6 C         138.2079  140.4884  165.6155 C.3     1  UNL1        0.0724
      7 C         140.2390  139.2256  162.4485 C.3     1  UNL1        0.0217
      8 C         140.1062  139.1949  160.9547 C.3     1  UNL1        0.0938
      9 N         138.8915  139.7801  160.2976 N.am    1  UNL1       -0.2748
     10 C         138.7587  139.7494  158.8037 C.2     1  UNL1        0.2669
     11 O         137.5439  140.3346  158.1465 O.2     1  UNL1       -0.2683
     12 C         137.8095  140.3961  161.1342 C.3     1  UNL1        0.0938
     13 C         137.9423  140.4269  162.6280 C.3     1  UNL1        0.0217
     14 C         139.8406  139.1334  157.9671 C.ar    1  UNL1        0.1380
     15 C         141.0826  139.9140  157.6538 C.ar    1  UNL1        0.0445
     16 C         142.1645  139.2980  156.8172 C.ar    1  UNL1        0.1024
     17 N         142.0045  137.9013  156.2939 N.ar    1  UNL1       -0.2224
     18 C         140.7625  137.1207  156.6072 C.ar    1  UNL1        0.1990
     19 N         139.6806  137.7368  157.4439 N.ar    1  UNL1       -0.2193
     20 C         139.5555  139.9339  167.7665 C.3     1  UNL1        0.1022
     21 C         141.3142  141.8257  168.0452 C.ar    1  UNL1        0.1427
     22 C         142.5707  142.3487  168.6759 C.ar    1  UNL1        0.0372
     23 C         143.3249  141.5028  169.6586 C.ar    1  UNL1        0.0031
     24 C         142.8226  140.1340  170.0106 C.ar    1  UNL1       -0.0001
     25 C         141.5661  139.6110  169.3799 C.ar    1  UNL1        0.0001
     26 C         140.8119  140.4569  168.3972 C.ar    1  UNL1        0.0284
     27 O         140.5600  142.6716  167.0625 O.3     1  UNL1       -0.4507
     28 C         140.1857  143.4497  164.6122 C.ar    1  UNL1        0.1730
     29 C         140.6757  143.5762  163.2001 C.ar    1  UNL1        0.0401
     30 C         142.0302  143.0512  162.8264 C.ar    1  UNL1        0.0033
     31 C         142.8947  142.3996  163.8648 C.ar    1  UNL1        0.0033
     32 C         142.4046  142.2730  165.2768 C.ar    1  UNL1        0.0406
     33 C         141.0501  142.7981  165.6505 C.ar    1  UNL1        0.1789
     34 C         137.7720  144.1327  163.9355 C.3     1  UNL1        0.2526
     35 O         138.8311  143.9748  164.9858 O.3     1  UNL1       -0.4684
@<TRIPOS>BOND
     1    34    35    1
     2    35    28    1
     3    28    29   ar
     4    29    30   ar
     5    30    31   ar
     6    31    32   ar
     7    32    33   ar
     8    33    27    1
     9    27    21    1
    10    21    22   ar
    11    22    23   ar
    12    23    24   ar
    13    24    25   ar
    14    25    26   ar
    15    26    20    1
    16    20     1    1
    17     1     2    1
    18     2     3    1
    19     3     4    1
    20     4     5    1
    21     5     6    1
    22     4     7    1
    23     7     8    1
    24     8     9    1
    25     9    10   am
    26    10    11    2
    27    10    14    1
    28    14    15   ar
    29    15    16   ar
    30    16    17   ar
    31    17    18   ar
    32    18    19   ar
    33     9    12    1
    34    12    13    1
    35    33    28   ar
    36    26    21   ar
    37     6     1    1
    38    19    14   ar
    39    13     4    1
@<TRIPOS>MOLECULE
*****
 35 39 0 0 0
SMALL
GASTEIGER

@<TRIPOS>ATOM
      1 N         140.2180  144.7407  161.8104 N.3     1  UNL1       -0.2689
      2 C         140.9835  145.0385  163.0655 C.3     1  UNL1        0.0724
      3 C         140.8379  144.1462  164.2624 C.3     1  UNL1        0.0175
      4 C         139.9266  142.9561  164.2042 C.3     1  UNL1        0.0060
      5 C         139.1610  142.6583  162.9492 C.3     1  UNL1        0.0175
      6 C         139.3067  143.5506  161.7523 C.3     1  UNL1        0.0724
      7 C         140.6922  143.2539  165.4593 C.3     1  UNL1        0.0217
      8 C         140.5465  142.3617  166.6562 C.3     1  UNL1        0.0938
      9 N         139.6353  141.1716  166.5981 N.am    1  UNL1       -0.2748
     10 C         139.4896  140.2793  167.7951 C.2     1  UNL1        0.2669
     11 O         138.5784  139.0892  167.7369 O.2     1  UNL1       -0.2683
     12 C         138.8697  140.8738  165.3430 C.3     1  UNL1        0.0938
     13 C         139.0154  141.7661  164.1460 C.3     1  UNL1        0.0217
     14 C         140.2552  140.5771  169.0501 C.ar    1  UNL1        0.1380
     15 C         139.7153  141.5649  170.0414 C.ar    1  UNL1        0.0445
     16 C         140.4809  141.8627  171.2964 C.ar    1  UNL1        0.1024
     17 N         141.7864  141.1727  171.5602 N.ar    1  UNL1       -0.2224
     18 C         142.3263  140.1848  170.5689 C.ar    1  UNL1        0.1990
     19 N         141.5607  139.8871  169.3138 N.ar    1  UNL1       -0.2193
     20 C         140.3636  145.6330  160.6134 C.3     1  UNL1        0.1022
     21 C         142.0880  144.2309  159.2679 C.ar    1  UNL1        0.1427
     22 C         142.5676  143.6647  157.9642 C.ar    1  UNL1        0.0372
     23 C         141.8025  143.9345  156.7026 C.ar    1  UNL1        0.0031
     24 C         140.5577  144.7703  156.7446 C.ar    1  UNL1       -0.0001
     25 C         140.0780  145.3365  158.0482 C.ar    1  UNL1        0.0001
     26 C         140.8432  145.0668  159.3099 C.ar    1  UNL1        0.0284
     27 O         142.8532  143.9612  160.5295 O.3     1  UNL1       -0.4507
     28 C         143.4019  142.4014  162.5335 C.ar    1  UNL1        0.1730
     29 C         143.2728  141.0738  163.2197 C.ar    1  UNL1        0.0401
     30 C         142.4659  139.9785  162.5881 C.ar    1  UNL1        0.0033
     31 C         141.7880  140.2106  161.2702 C.ar    1  UNL1        0.0033
     32 C         141.9171  141.5382  160.5840 C.ar    1  UNL1        0.0406
     33 C         142.7241  142.6336  161.2157 C.ar    1  UNL1        0.1789
     34 C         144.4285  143.5065  164.6489 C.3     1  UNL1        0.2526
     35 O         144.2089  143.4968  163.1651 O.3     1  UNL1       -0.4684
@<TRIPOS>BOND
     1    34    35    1
     2    35    28    1
     3    28    29   ar
     4    29    30   ar
     5    30    31   ar
     6    31    32   ar
     7    32    33   ar
     8    33    27    1
     9    27    21    1
    10    21    22   ar
    11    22    23   ar
    12    23    24   ar
    13    24    25   ar
    14    25    26   ar
    15    26    20    1
    16    20     1    1
    17     1     2    1
    18     2     3    1
    19     3     4    1
    20     4     5    1
    21     5     6    1
    22     4     7    1
    23     7     8    1
    24     8     9    1
    25     9    10   am
    26    10    11    2
    27    10    14    1
    28    14    15   ar
    29    15    16   ar
    30    16    17   ar
    31    17    18   ar
    32    18    19   ar
    33     9    12    1
    34    12    13    1
    35    33    28   ar
    36    26    21   ar
    37     6     1    1
    38    19    14   ar
    39    13     4    1
