@<TRIPOS>MOLECULE
*****
 22 24 0 0 0
SMALL
GASTEIGER

@<TRIPOS>ATOM
      1 C         140.6735  140.3115  166.0433 C.ar    1  UNL1        0.0266
      2 C         141.2031  138.9288  165.8034 C.ar    1  UNL1        0.0994
      3 N         140.6706  138.1086  164.6661 N.ar    1  UNL1       -0.2423
      4 C         139.6085  138.6711  163.7686 C.ar    1  UNL1        0.0985
      5 C         138.8965  138.1022  162.5772 C.ar    1  UNL1        0.0392
      6 C         137.9268  139.1333  162.0807 C.ar    1  UNL1        0.0779
      7 N         138.0395  140.3395  162.9654 N.ar    1  UNL1       -0.3165
      8 C         139.0788  140.0538  164.0085 C.ar    1  UNL1        0.0782
      9 C         139.6113  140.8740  165.1459 C.ar    1  UNL1        0.0208
     10 C         140.9965  143.7662  170.0235 C.3     1  UNL1        0.0325
     11 C         141.3544  142.7198  169.0102 C.ar    1  UNL1       -0.0047
     12 C         140.4334  142.1409  167.9775 C.ar    1  UNL1        0.0036
     13 C         141.2060  141.1318  167.1807 C.ar    1  UNL1        0.0315
     14 S         142.6046  141.0871  167.7210 S.2     1  UNL1       -0.0758
     15 C         142.6964  142.0685  168.8517 C.ar    1  UNL1        0.0830
     16 CL        143.9159  142.3493  169.6787 Cl      1  UNL1       -0.0755
     17 C         137.2513  141.6085  162.8305 C.3     1  UNL1        0.1920
     18 C         137.8923  142.8306  162.2426 C.2     1  UNL1        0.2488
     19 O         138.1962  142.8857  160.7748 O.2     1  UNL1       -0.2728
     20 N         138.2293  143.9977  163.1226 N.am    1  UNL1       -0.2744
     21 C         138.8702  145.2199  162.5347 C.3     1  UNL1        0.1150
     22 C         137.9253  143.9428  164.5904 C.3     1  UNL1        0.1150
@<TRIPOS>BOND
     1    10    11    1
     2    11    12   ar
     3    12    13   ar
     4    13     1    1
     5     1     2   ar
     6     2     3   ar
     7     3     4   ar
     8     4     5   ar
     9     5     6   ar
    10     6     7   ar
    11     7    17    1
    12    17    18    1
    13    18    19    2
    14    18    20   am
    15    20    21    1
    16    20    22    1
    17     7     8   ar
    18     8     9   ar
    19    13    14   ar
    20    14    15   ar
    21    15    16    1
    22    15    11   ar
    23     9     1   ar
    24     8     4   ar
@<TRIPOS>MOLECULE
*****
 22 24 0 0 0
SMALL
GASTEIGER

@<TRIPOS>ATOM
      1 C         140.2684  141.3056  166.5831 C.ar    1  UNL1        0.0266
      2 C         139.2615  140.2048  166.4275 C.ar    1  UNL1        0.0994
      3 N         138.2502  140.2642  165.3214 N.ar    1  UNL1       -0.2423
      4 C         138.2459  141.4245  164.3707 C.ar    1  UNL1        0.0985
      5 C         137.3769  141.7540  163.1932 C.ar    1  UNL1        0.0392
      6 C         137.8469  143.0585  162.6210 C.ar    1  UNL1        0.0779
      7 N         139.0063  143.5352  163.4448 N.ar    1  UNL1       -0.3165
      8 C         139.2528  142.5253  164.5262 C.ar    1  UNL1        0.0782
      9 C         140.2641  142.4658  165.6324 C.ar    1  UNL1        0.0208
     10 C         144.2147  142.5766  169.8531 C.3     1  UNL1        0.0325
     11 C         143.0937  141.8304  169.1923 C.ar    1  UNL1       -0.0047
     12 C         142.2910  142.3044  168.0172 C.ar    1  UNL1        0.0036
     13 C         141.2798  141.2462  167.6893 C.ar    1  UNL1        0.0315
     14 S         141.4575  140.1181  168.6618 S.2     1  UNL1       -0.0758
     15 C         142.5785  140.4791  169.5907 C.ar    1  UNL1        0.0830
     16 CL        143.0939  139.6368  170.7199 Cl      1  UNL1       -0.0755
     17 C         139.7828  144.7997  163.2258 C.3     1  UNL1        0.1920
     18 C         139.9703  145.3336  161.8366 C.2     1  UNL1        0.2488
     19 O         139.0793  146.4273  161.3268 O.2     1  UNL1       -0.2728
     20 N         141.0488  144.7738  160.9572 N.am    1  UNL1       -0.2744
     21 C         141.2364  145.3076  159.5681 C.3     1  UNL1        0.1150
     22 C         141.9399  143.6801  161.4669 C.3     1  UNL1        0.1150
@<TRIPOS>BOND
     1    10    11    1
     2    11    12   ar
     3    12    13   ar
     4    13     1    1
     5     1     2   ar
     6     2     3   ar
     7     3     4   ar
     8     4     5   ar
     9     5     6   ar
    10     6     7   ar
    11     7    17    1
    12    17    18    1
    13    18    19    2
    14    18    20   am
    15    20    21    1
    16    20    22    1
    17     7     8   ar
    18     8     9   ar
    19    13    14   ar
    20    14    15   ar
    21    15    16    1
    22    15    11   ar
    23     9     1   ar
    24     8     4   ar
@<TRIPOS>MOLECULE
*****
 22 24 0 0 0
SMALL
GASTEIGER

@<TRIPOS>ATOM
      1 C         139.3642  142.5491  163.9200 C.ar    1  UNL1        0.0266
      2 C         138.2903  143.5745  163.7073 C.ar    1  UNL1        0.0994
      3 N         138.4270  144.5869  162.6090 N.ar    1  UNL1       -0.2423
      4 C         139.6376  144.5739  161.7234 C.ar    1  UNL1        0.0985
      5 C         140.0455  145.4396  160.5683 C.ar    1  UNL1        0.0392
      6 C         141.3715  144.9492  160.0671 C.ar    1  UNL1        0.0779
      7 N         141.7831  143.7805  160.9124 N.ar    1  UNL1       -0.3165
      8 C         140.7115  143.5485  161.9361 C.ar    1  UNL1        0.0782
      9 C         140.5748  142.5361  163.0344 C.ar    1  UNL1        0.0208
     10 C         137.7741  138.3694  166.7277 C.3     1  UNL1        0.0325
     11 C         138.4966  139.6154  166.3089 C.ar    1  UNL1       -0.0047
     12 C         138.3049  140.3539  165.0174 C.ar    1  UNL1        0.0036
     13 C         139.2276  141.5366  165.0183 C.ar    1  UNL1        0.0315
     14 S         139.9896  141.5290  166.3103 S.2     1  UNL1       -0.0758
     15 C         139.5379  140.3417  167.1079 C.ar    1  UNL1        0.0830
     16 CL        140.0393  139.9494  168.4662 Cl      1  UNL1       -0.0755
     17 C         143.0448  142.9835  160.7608 C.3     1  UNL1        0.1920
     18 C         144.0933  143.0279  161.8325 C.2     1  UNL1        0.2488
     19 O         144.5236  144.3452  162.4067 O.2     1  UNL1       -0.2728
     20 N         144.7116  141.7551  162.3301 N.am    1  UNL1       -0.2744
     21 C         145.7601  141.7995  163.4018 C.3     1  UNL1        0.1150
     22 C         144.2813  140.4378  161.7560 C.3     1  UNL1        0.1150
@<TRIPOS>BOND
     1    10    11    1
     2    11    12   ar
     3    12    13   ar
     4    13     1    1
     5     1     2   ar
     6     2     3   ar
     7     3     4   ar
     8     4     5   ar
     9     5     6   ar
    10     6     7   ar
    11     7    17    1
    12    17    18    1
    13    18    19    2
    14    18    20   am
    15    20    21    1
    16    20    22    1
    17     7     8   ar
    18     8     9   ar
    19    13    14   ar
    20    14    15   ar
    21    15    16    1
    22    15    11   ar
    23     9     1   ar
    24     8     4   ar
@<TRIPOS>MOLECULE
*****
 22 24 0 0 0
SMALL
GASTEIGER

@<TRIPOS>ATOM
      1 C         139.4514  140.3870  166.2065 C.ar    1  UNL1        0.0266
      2 C         139.5209  138.9122  165.9420 C.ar    1  UNL1        0.0994
      3 N         139.0687  138.3651  164.6206 N.ar    1  UNL1       -0.2423
      4 C         138.5469  139.2929  163.5637 C.ar    1  UNL1        0.0985
      5 C         138.0336  139.0461  162.1760 C.ar    1  UNL1        0.0392
      6 C         137.6468  140.3684  161.5829 C.ar    1  UNL1        0.0779
      7 N         137.9211  141.4324  162.6040 N.ar    1  UNL1       -0.3165
      8 C         138.4774  140.7677  163.8282 C.ar    1  UNL1        0.0782
      9 C         138.9297  141.3148  165.1496 C.ar    1  UNL1        0.0208
     10 C         141.0749  143.7094  169.9758 C.3     1  UNL1        0.0325
     11 C         140.6499  142.4613  169.2605 C.ar    1  UNL1       -0.0047
     12 C         140.2509  142.3644  167.8178 C.ar    1  UNL1        0.0036
     13 C         139.9037  140.9342  167.5280 C.ar    1  UNL1        0.0315
     14 S         140.0881  140.1472  168.7916 S.2     1  UNL1       -0.0758
     15 C         140.5493  141.0910  169.8623 C.ar    1  UNL1        0.0830
     16 CL        140.8560  140.7282  171.2851 Cl      1  UNL1       -0.0755
     17 C         137.6813  142.9030  162.4313 C.3     1  UNL1        0.1920
     18 C         138.7742  143.7843  161.9032 C.2     1  UNL1        0.2488
     19 O         139.1646  143.7099  160.4568 O.2     1  UNL1       -0.2728
     20 N         139.4767  144.7399  162.8214 N.am    1  UNL1       -0.2744
     21 C         140.5696  145.6212  162.2932 C.3     1  UNL1        0.1150
     22 C         139.0864  144.8144  164.2678 C.3     1  UNL1        0.1150
@<TRIPOS>BOND
     1    10    11    1
     2    11    12   ar
     3    12    13   ar
     4    13     1    1
     5     1     2   ar
     6     2     3   ar
     7     3     4   ar
     8     4     5   ar
     9     5     6   ar
    10     6     7   ar
    11     7    17    1
    12    17    18    1
    13    18    19    2
    14    18    20   am
    15    20    21    1
    16    20    22    1
    17     7     8   ar
    18     8     9   ar
    19    13    14   ar
    20    14    15   ar
    21    15    16    1
    22    15    11   ar
    23     9     1   ar
    24     8     4   ar
@<TRIPOS>MOLECULE
*****
 22 24 0 0 0
SMALL
GASTEIGER

@<TRIPOS>ATOM
      1 C         141.8888  139.2810  165.6709 C.ar    1  UNL1        0.0266
      2 C         141.2863  138.0757  165.0119 C.ar    1  UNL1        0.0994
      3 N         141.6859  137.7070  163.6139 N.ar    1  UNL1       -0.2423
      4 C         142.6878  138.5436  162.8749 C.ar    1  UNL1        0.0985
      5 C         143.2712  138.4281  161.4978 C.ar    1  UNL1        0.0392
      6 C         144.2342  139.5620  161.3058 C.ar    1  UNL1        0.0779
      7 N         144.2460  140.3783  162.5641 N.ar    1  UNL1       -0.3165
      8 C         143.2903  139.7489  163.5339 C.ar    1  UNL1        0.0782
      9 C         142.8907  140.1176  164.9319 C.ar    1  UNL1        0.0208
     10 C         138.9819  140.5107  169.9040 C.3     1  UNL1        0.0325
     11 C         140.1531  140.2149  169.0147 C.ar    1  UNL1       -0.0047
     12 C         140.0873  139.8629  167.5581 C.ar    1  UNL1        0.0036
     13 C         141.4892  139.6497  167.0690 C.ar    1  UNL1        0.0315
     14 S         142.4214  139.8699  168.2233 S.2     1  UNL1       -0.0758
     15 C         141.5957  140.2192  169.4258 C.ar    1  UNL1        0.0830
     16 CL        142.1204  140.5200  170.7985 Cl      1  UNL1       -0.0755
     17 C         145.0690  141.6081  162.8097 C.3     1  UNL1        0.1920
     18 C         144.4675  142.9666  162.6032 C.2     1  UNL1        0.2488
     19 O         144.1452  143.4414  161.2173 O.2     1  UNL1       -0.2728
     20 N         144.1882  143.8503  163.7826 N.am    1  UNL1       -0.2744
     21 C         143.5867  145.2089  163.5762 C.3     1  UNL1        0.1150
     22 C         144.5104  143.3756  165.1685 C.3     1  UNL1        0.1150
@<TRIPOS>BOND
     1    10    11    1
     2    11    12   ar
     3    12    13   ar
     4    13     1    1
     5     1     2   ar
     6     2     3   ar
     7     3     4   ar
     8     4     5   ar
     9     5     6   ar
    10     6     7   ar
    11     7    17    1
    12    17    18    1
    13    18    19    2
    14    18    20   am
    15    20    21    1
    16    20    22    1
    17     7     8   ar
    18     8     9   ar
    19    13    14   ar
    20    14    15   ar
    21    15    16    1
    22    15    11   ar
    23     9     1   ar
    24     8     4   ar
@<TRIPOS>MOLECULE
*****
 22 24 0 0 0
SMALL
GASTEIGER

@<TRIPOS>ATOM
      1 C         141.6188  140.2120  166.8230 C.ar    1  UNL1        0.0266
      2 C         142.7569  139.2474  166.6675 C.ar    1  UNL1        0.0994
      3 N         142.7037  138.1898  165.6052 N.ar    1  UNL1       -0.2423
      4 C         141.5125  138.0967  164.6985 C.ar    1  UNL1        0.0985
      5 C         141.1809  137.1667  163.5692 C.ar    1  UNL1        0.0392
      6 C         139.8378  137.5565  163.0268 C.ar    1  UNL1        0.0779
      7 N         139.3394  138.7275  163.8209 N.ar    1  UNL1       -0.3165
      8 C         140.3743  139.0613  164.8540 C.ar    1  UNL1        0.0782
      9 C         140.4275  140.1189  165.9163 C.ar    1  UNL1        0.0208
     10 C         140.2703  144.1985  170.0122 C.3     1  UNL1        0.0325
     11 C         141.0520  143.1021  169.3513 C.ar    1  UNL1       -0.0047
     12 C         140.5680  142.2227  168.2367 C.ar    1  UNL1        0.0036
     13 C         141.6719  141.2698  167.8854 C.ar    1  UNL1        0.0315
     14 S         142.8381  141.5602  168.7828 S.2     1  UNL1       -0.0758
     15 C         142.4551  142.6927  169.6888 C.ar    1  UNL1        0.0830
     16 CL        143.3227  143.3077  170.7466 Cl      1  UNL1       -0.0755
     17 C         138.0349  139.4395  163.6175 C.3     1  UNL1        0.1920
     18 C         138.0236  140.8943  163.2519 C.2     1  UNL1        0.2488
     19 O         137.9199  141.9366  164.3255 O.2     1  UNL1       -0.2728
     20 N         138.1160  141.3066  161.8126 N.am    1  UNL1       -0.2744
     21 C         138.1047  142.7613  161.4470 C.3     1  UNL1        0.1150
     22 C         138.2197  140.2643  160.7390 C.3     1  UNL1        0.1150
@<TRIPOS>BOND
     1    10    11    1
     2    11    12   ar
     3    12    13   ar
     4    13     1    1
     5     1     2   ar
     6     2     3   ar
     7     3     4   ar
     8     4     5   ar
     9     5     6   ar
    10     6     7   ar
    11     7    17    1
    12    17    18    1
    13    18    19    2
    14    18    20   am
    15    20    21    1
    16    20    22    1
    17     7     8   ar
    18     8     9   ar
    19    13    14   ar
    20    14    15   ar
    21    15    16    1
    22    15    11   ar
    23     9     1   ar
    24     8     4   ar
@<TRIPOS>MOLECULE
*****
 22 24 0 0 0
SMALL
GASTEIGER

@<TRIPOS>ATOM
      1 C         141.9997  140.7540  166.2075 C.ar    1  UNL1        0.0266
      2 C         143.2239  141.5633  165.8974 C.ar    1  UNL1        0.0994
      3 N         144.0440  141.2469  164.6820 N.ar    1  UNL1       -0.2423
      4 C         143.6399  140.1212  163.7768 C.ar    1  UNL1        0.0985
      5 C         144.2468  139.5795  162.5164 C.ar    1  UNL1        0.0392
      6 C         143.3976  138.4353  162.0477 C.ar    1  UNL1        0.0779
      7 N         142.2659  138.2699  163.0183 N.ar    1  UNL1       -0.3165
      8 C         142.4157  139.3119  164.0869 C.ar    1  UNL1        0.0782
      9 C         141.5956  139.6282  165.3023 C.ar    1  UNL1        0.0208
     10 C         139.9807  143.2698  170.3879 C.3     1  UNL1        0.0325
     11 C         140.2515  142.2267  169.3445 C.ar    1  UNL1       -0.0047
     12 C         141.2379  142.3396  168.2202 C.ar    1  UNL1        0.0036
     13 C         141.1795  141.0703  167.4230 C.ar    1  UNL1        0.0315
     14 S         140.1568  140.1730  168.0546 S.2     1  UNL1       -0.0758
     15 C         139.5833  140.8876  169.2422 C.ar    1  UNL1        0.0830
     16 CL        138.5270  140.3565  170.1653 Cl      1  UNL1       -0.0755
     17 C         141.1758  137.2429  162.9349 C.3     1  UNL1        0.1920
     18 C         139.7390  137.6736  162.9229 C.2     1  UNL1        0.2488
     19 O         138.9034  137.5324  164.1605 O.2     1  UNL1       -0.2728
     20 N         139.1379  138.2453  161.6732 N.am    1  UNL1       -0.2744
     21 C         137.7010  138.6759  161.6612 C.3     1  UNL1        0.1150
     22 C         139.9734  138.3864  160.4355 C.3     1  UNL1        0.1150
@<TRIPOS>BOND
     1    10    11    1
     2    11    12   ar
     3    12    13   ar
     4    13     1    1
     5     1     2   ar
     6     2     3   ar
     7     3     4   ar
     8     4     5   ar
     9     5     6   ar
    10     6     7   ar
    11     7    17    1
    12    17    18    1
    13    18    19    2
    14    18    20   am
    15    20    21    1
    16    20    22    1
    17     7     8   ar
    18     8     9   ar
    19    13    14   ar
    20    14    15   ar
    21    15    16    1
    22    15    11   ar
    23     9     1   ar
    24     8     4   ar
@<TRIPOS>MOLECULE
*****
 22 24 0 0 0
SMALL
GASTEIGER

@<TRIPOS>ATOM
      1 C         139.0379  141.6965  163.6546 C.ar    1  UNL1        0.0266
      2 C         137.8510  142.1545  162.8599 C.ar    1  UNL1        0.0994
      3 N         137.8441  143.5215  162.2425 N.ar    1  UNL1       -0.2423
      4 C         139.0241  144.4305  162.4198 C.ar    1  UNL1        0.0985
      5 C         139.3013  145.8218  161.9325 C.ar    1  UNL1        0.0392
      6 C         140.6596  146.2237  162.4260 C.ar    1  UNL1        0.0779
      7 N         141.2217  145.0807  163.2183 N.ar    1  UNL1       -0.3165
      8 C         140.2109  143.9725  163.2145 C.ar    1  UNL1        0.0782
      9 C         140.2179  142.6055  163.8318 C.ar    1  UNL1        0.0208
     10 C         137.7899  137.5356  166.6563 C.3     1  UNL1        0.0325
     11 C         138.4712  138.4169  165.6518 C.ar    1  UNL1       -0.0047
     12 C         138.1035  139.8351  165.3301 C.ar    1  UNL1        0.0036
     13 C         139.0449  140.3294  164.2720 C.ar    1  UNL1        0.0315
     14 S         139.9944  139.2168  163.9399 S.2     1  UNL1       -0.0758
     15 C         139.6399  138.0348  164.7926 C.ar    1  UNL1        0.0830
     16 CL        140.3325  136.7042  164.7871 Cl      1  UNL1       -0.0755
     17 C         142.5598  145.0512  163.8956 C.3     1  UNL1        0.1920
     18 C         143.6344  144.1330  163.3935 C.2     1  UNL1        0.2488
     19 O         144.1908  144.3141  162.0123 O.2     1  UNL1       -0.2728
     20 N         144.1528  143.0337  164.2727 N.am    1  UNL1       -0.2744
     21 C         145.2274  142.1155  163.7706 C.3     1  UNL1        0.1150
     22 C         143.5965  142.8526  165.6538 C.3     1  UNL1        0.1150
@<TRIPOS>BOND
     1    10    11    1
     2    11    12   ar
     3    12    13   ar
     4    13     1    1
     5     1     2   ar
     6     2     3   ar
     7     3     4   ar
     8     4     5   ar
     9     5     6   ar
    10     6     7   ar
    11     7    17    1
    12    17    18    1
    13    18    19    2
    14    18    20   am
    15    20    21    1
    16    20    22    1
    17     7     8   ar
    18     8     9   ar
    19    13    14   ar
    20    14    15   ar
    21    15    16    1
    22    15    11   ar
    23     9     1   ar
    24     8     4   ar
@<TRIPOS>MOLECULE
*****
 22 24 0 0 0
SMALL
GASTEIGER

@<TRIPOS>ATOM
      1 C         140.3005  140.2044  166.2890 C.ar    1  UNL1        0.0266
      2 C         139.1063  139.3541  166.6064 C.ar    1  UNL1        0.0994
      3 N         138.5098  138.4740  165.5483 N.ar    1  UNL1       -0.2423
      4 C         139.1074  138.4443  164.1728 C.ar    1  UNL1        0.0985
      5 C         138.7389  137.6819  162.9347 C.ar    1  UNL1        0.0392
      6 C         139.7054  138.0610  161.8520 C.ar    1  UNL1        0.0779
      7 N         140.6712  139.0577  162.4211 N.ar    1  UNL1       -0.3165
      8 C         140.3016  139.2946  163.8554 C.ar    1  UNL1        0.0782
      9 C         140.8982  140.1747  164.9135 C.ar    1  UNL1        0.0208
     10 C         140.8609  143.9014  170.0172 C.3     1  UNL1        0.0325
     11 C         141.1547  142.7839  169.0607 C.ar    1  UNL1       -0.0047
     12 C         140.1791  142.1600  168.1073 C.ar    1  UNL1        0.0036
     13 C         140.8972  141.0846  167.3470 C.ar    1  UNL1        0.0315
     14 S         142.3165  141.0438  167.8306 S.2     1  UNL1       -0.0758
     15 C         142.4757  142.0940  168.8897 C.ar    1  UNL1        0.0830
     16 CL        143.7348  142.4006  169.6452 Cl      1  UNL1       -0.0755
     17 C         141.8072  139.7041  161.6851 C.3     1  UNL1        0.1920
     18 C         143.1936  139.6578  162.2557 C.2     1  UNL1        0.2488
     19 O         143.9339  138.3550  162.3227 O.2     1  UNL1       -0.2728
     20 N         143.8397  140.9144  162.7594 N.am    1  UNL1       -0.2744
     21 C         145.2262  140.8681  163.3300 C.3     1  UNL1        0.1150
     22 C         143.0995  142.2172  162.6924 C.3     1  UNL1        0.1150
@<TRIPOS>BOND
     1    10    11    1
     2    11    12   ar
     3    12    13   ar
     4    13     1    1
     5     1     2   ar
     6     2     3   ar
     7     3     4   ar
     8     4     5   ar
     9     5     6   ar
    10     6     7   ar
    11     7    17    1
    12    17    18    1
    13    18    19    2
    14    18    20   am
    15    20    21    1
    16    20    22    1
    17     7     8   ar
    18     8     9   ar
    19    13    14   ar
    20    14    15   ar
    21    15    16    1
    22    15    11   ar
    23     9     1   ar
    24     8     4   ar
