@<TRIPOS>MOLECULE
*****
 34 38 0 0 0
SMALL
GASTEIGER

@<TRIPOS>ATOM
      1 C         144.1113  139.6427  163.4325 C.ar    1  UNL1        0.1285
      2 N         144.2241  140.9456  162.6976 N.ar    1  UNL1       -0.1992
      3 C         143.8394  142.2260  163.3776 C.ar    1  UNL1        0.2215
      4 N         143.3419  142.2037  164.7925 N.ar    1  UNL1       -0.2179
      5 C         143.2291  140.9010  165.5274 C.ar    1  UNL1        0.0642
      6 C         143.6138  139.6205  164.8474 C.ar    1  UNL1        0.0232
      7 C         143.3976  138.4972  165.8177 C.3     1  UNL1        0.0311
      8 C         142.8793  139.0835  167.0974 C.3     1  UNL1        0.0151
      9 C         142.7752  140.5691  166.9180 C.3     1  UNL1        0.0627
     10 C         142.3004  141.5504  167.9483 C.ar    1  UNL1       -0.0169
     11 C         143.1778  141.8967  169.1146 C.ar    1  UNL1       -0.0039
     12 C         142.7031  142.8781  170.1450 C.ar    1  UNL1       -0.0003
     13 C         141.3511  143.5131  170.0090 C.ar    1  UNL1       -0.0000
     14 C         140.4737  143.1668  168.8427 C.ar    1  UNL1       -0.0003
     15 C         140.9483  142.1855  167.8123 C.ar    1  UNL1       -0.0039
     16 C         143.8468  137.9771  161.4562 C.3     1  UNL1        0.1096
     17 N         144.4960  138.3623  162.7524 N.pl3   1  UNL1       -0.3168
     18 H         145.1745  137.7747  163.1568 H       1  UNL1        0.1482
     19 N         143.9522  143.5288  162.6427 N.pl3   1  UNL1       -0.2824
     20 H         144.6027  144.2061  162.9384 H       1  UNL1        0.1551
     21 C         143.0739  143.7996  161.4573 C.ar    1  UNL1        0.0536
     22 C         143.3981  143.1857  160.1276 C.ar    1  UNL1        0.0164
     23 C         142.5198  143.4565  158.9422 C.ar    1  UNL1        0.0219
     24 C         141.3171  144.3414  159.0865 C.ar    1  UNL1        0.0995
     25 C         140.9929  144.9553  160.4160 C.ar    1  UNL1        0.1559
     26 C         141.8713  144.6844  161.6015 C.ar    1  UNL1        0.0531
     27 N         140.4388  144.6122  157.9011 N.ar    1  UNL1       -0.2828
     28 C         139.5361  143.6212  157.2279 C.ar    1  UNL1        0.1837
     29 N         138.8484  144.3181  156.0915 N.ar    1  UNL1       -0.2120
     30 C         139.3260  145.7397  156.0623 C.ar    1  UNL1        0.1575
     31 CL        138.8962  146.7944  155.0862 Cl      1  UNL1       -0.0597
     32 C         140.3090  145.9214  157.1807 C.ar    1  UNL1        0.1125
     33 O         139.7903  145.8401  160.5604 O.3     1  UNL1       -0.4699
     34 C         139.2988  146.2210  161.9253 C.3     1  UNL1        0.2525
@<TRIPOS>BOND
     1    16    17    1
     2    17     1    1
     3     1     2   ar
     4     2     3   ar
     5     3    19    1
     6    19    21    1
     7    21    22   ar
     8    22    23   ar
     9    23    24   ar
    10    24    27    1
    11    27    28   ar
    12    28    29   ar
    13    29    30   ar
    14    30    31    1
    15    30    32   ar
    16    24    25   ar
    17    25    33    1
    18    33    34    1
    19    25    26   ar
    20     3     4   ar
    21     4     5   ar
    22     5     6   ar
    23     6     7    1
    24     7     8    1
    25     8     9    1
    26     9    10    1
    27    10    11   ar
    28    11    12   ar
    29    12    13   ar
    30    13    14   ar
    31    14    15   ar
    32     6     1   ar
    33    15    10   ar
    34    26    21   ar
    35     9     5    1
    36    32    27   ar
    37    17    18    1
    38    19    20    1
@<TRIPOS>MOLECULE
*****
 34 38 0 0 0
SMALL
GASTEIGER

@<TRIPOS>ATOM
      1 C         139.3603  140.1060  168.8063 C.ar    1  UNL1        0.1285
      2 N         138.6213  139.3348  167.7530 N.ar    1  UNL1       -0.1992
      3 C         139.1971  139.2079  166.3739 C.ar    1  UNL1        0.2215
      4 N         140.5119  139.8521  166.0478 N.ar    1  UNL1       -0.2179
      5 C         141.2509  140.6233  167.1010 C.ar    1  UNL1        0.0642
      6 C         140.6751  140.7502  168.4802 C.ar    1  UNL1        0.0232
      7 C         141.6248  141.5666  169.3057 C.3     1  UNL1        0.0311
      8 C         142.7876  141.9442  168.4366 C.3     1  UNL1        0.0151
      9 C         142.5565  141.3612  167.0740 C.3     1  UNL1        0.0627
     10 C         143.4706  141.4930  165.8920 C.ar    1  UNL1       -0.0169
     11 C         143.8775  140.2737  165.1190 C.ar    1  UNL1       -0.0039
     12 C         144.7916  140.4054  163.9370 C.ar    1  UNL1       -0.0003
     13 C         145.2987  141.7565  163.5280 C.ar    1  UNL1       -0.0000
     14 C         144.8917  142.9759  164.3011 C.ar    1  UNL1       -0.0003
     15 C         143.9777  142.8442  165.4830 C.ar    1  UNL1       -0.0039
     16 C         137.4662  139.5949  170.5095 C.3     1  UNL1        0.1096
     17 N         138.7844  140.2329  170.1856 N.pl3   1  UNL1       -0.3168
     18 H         139.2718  140.7349  170.8782 H       1  UNL1        0.1482
     19 N         138.4581  138.4367  165.3206 N.pl3   1  UNL1       -0.2824
     20 H         137.9185  137.6527  165.5722 H       1  UNL1        0.1551
     21 C         138.5414  138.8603  163.8840 C.ar    1  UNL1        0.0536
     22 C         139.0744  137.9112  162.8519 C.ar    1  UNL1        0.0164
     23 C         139.1577  138.3348  161.4154 C.ar    1  UNL1        0.0219
     24 C         138.7079  139.7075  161.0109 C.ar    1  UNL1        0.0995
     25 C         138.1749  140.6565  162.0429 C.ar    1  UNL1        0.1559
     26 C         138.0917  140.2329  163.4796 C.ar    1  UNL1        0.0531
     27 N         138.7912  140.1310  159.5744 N.ar    1  UNL1       -0.2828
     28 C         140.0500  140.4248  158.8134 C.ar    1  UNL1        0.1837
     29 N         139.6671  140.8105  157.4152 N.ar    1  UNL1       -0.2120
     30 C         138.1717  140.7550  157.3122 C.ar    1  UNL1        0.1575
     31 CL        137.3601  141.0651  156.0894 Cl      1  UNL1       -0.0597
     32 C         137.6304  140.3351  158.6466 C.ar    1  UNL1        0.1125
     33 O         137.7252  142.0291  161.6386 O.3     1  UNL1       -0.4699
     34 C         137.7322  143.1460  162.6397 C.3     1  UNL1        0.2525
@<TRIPOS>BOND
     1    16    17    1
     2    17     1    1
     3     1     2   ar
     4     2     3   ar
     5     3    19    1
     6    19    21    1
     7    21    22   ar
     8    22    23   ar
     9    23    24   ar
    10    24    27    1
    11    27    28   ar
    12    28    29   ar
    13    29    30   ar
    14    30    31    1
    15    30    32   ar
    16    24    25   ar
    17    25    33    1
    18    33    34    1
    19    25    26   ar
    20     3     4   ar
    21     4     5   ar
    22     5     6   ar
    23     6     7    1
    24     7     8    1
    25     8     9    1
    26     9    10    1
    27    10    11   ar
    28    11    12   ar
    29    12    13   ar
    30    13    14   ar
    31    14    15   ar
    32     6     1   ar
    33    15    10   ar
    34    26    21   ar
    35     9     5    1
    36    32    27   ar
    37    17    18    1
    38    19    20    1
@<TRIPOS>MOLECULE
*****
 34 38 0 0 0
SMALL
GASTEIGER

@<TRIPOS>ATOM
      1 C         141.5512  141.7021  168.9220 C.ar    1  UNL1        0.1285
      2 N         142.6320  142.3512  168.1092 N.ar    1  UNL1       -0.1992
      3 C         142.6507  142.1867  166.6184 C.ar    1  UNL1        0.2215
      4 N         141.5885  141.3732  165.9403 N.ar    1  UNL1       -0.2179
      5 C         140.5077  140.7241  166.7529 C.ar    1  UNL1        0.0642
      6 C         140.4890  140.8885  168.2438 C.ar    1  UNL1        0.0232
      7 C         139.3066  140.1362  168.7784 C.3     1  UNL1        0.0311
      8 C         138.5944  139.5068  167.6179 C.3     1  UNL1        0.0151
      9 C         139.3368  139.8701  166.3661 C.3     1  UNL1        0.0627
     10 C         138.9722  139.4527  164.9723 C.ar    1  UNL1       -0.0169
     11 C         138.2614  140.4117  164.0639 C.ar    1  UNL1       -0.0039
     12 C         137.8968  139.9943  162.6700 C.ar    1  UNL1       -0.0003
     13 C         138.2429  138.6180  162.1846 C.ar    1  UNL1       -0.0000
     14 C         138.9536  137.6589  163.0930 C.ar    1  UNL1       -0.0003
     15 C         139.3182  138.0762  164.4868 C.ar    1  UNL1       -0.0039
     16 C         142.0004  140.7487  171.2966 C.3     1  UNL1        0.1096
     17 N         141.5326  141.8666  170.4128 N.pl3   1  UNL1       -0.3168
     18 H         141.2133  142.7084  170.8112 H       1  UNL1        0.1482
     19 N         143.7315  142.8358  165.8056 N.pl3   1  UNL1       -0.2824
     20 H         144.3758  143.4419  166.2379 H       1  UNL1        0.1551
     21 C         143.8307  142.5615  164.3343 C.ar    1  UNL1        0.0536
     22 C         144.5501  141.3391  163.8460 C.ar    1  UNL1        0.0164
     23 C         144.6492  141.0647  162.3747 C.ar    1  UNL1        0.0219
     24 C         144.0289  142.0128  161.3915 C.ar    1  UNL1        0.0995
     25 C         143.3095  143.2350  161.8797 C.ar    1  UNL1        0.1559
     26 C         143.2104  143.5094  163.3512 C.ar    1  UNL1        0.0531
     27 N         144.1280  141.7384  159.9202 N.ar    1  UNL1       -0.2828
     28 C         143.4916  140.5916  159.1924 C.ar    1  UNL1        0.1837
     29 N         143.8512  140.7070  157.7406 N.ar    1  UNL1       -0.2120
     30 C         144.7098  141.9252  157.5713 C.ar    1  UNL1        0.1575
     31 CL        145.2947  142.4194  156.2814 Cl      1  UNL1       -0.0597
     32 C         144.8809  142.5627  158.9183 C.ar    1  UNL1        0.1125
     33 O         142.6891  144.1831  160.8967 O.3     1  UNL1       -0.4699
     34 C         141.2974  144.6944  161.1235 C.3     1  UNL1        0.2525
@<TRIPOS>BOND
     1    16    17    1
     2    17     1    1
     3     1     2   ar
     4     2     3   ar
     5     3    19    1
     6    19    21    1
     7    21    22   ar
     8    22    23   ar
     9    23    24   ar
    10    24    27    1
    11    27    28   ar
    12    28    29   ar
    13    29    30   ar
    14    30    31    1
    15    30    32   ar
    16    24    25   ar
    17    25    33    1
    18    33    34    1
    19    25    26   ar
    20     3     4   ar
    21     4     5   ar
    22     5     6   ar
    23     6     7    1
    24     7     8    1
    25     8     9    1
    26     9    10    1
    27    10    11   ar
    28    11    12   ar
    29    12    13   ar
    30    13    14   ar
    31    14    15   ar
    32     6     1   ar
    33    15    10   ar
    34    26    21   ar
    35     9     5    1
    36    32    27   ar
    37    17    18    1
    38    19    20    1
@<TRIPOS>MOLECULE
*****
 34 38 0 0 0
SMALL
GASTEIGER

@<TRIPOS>ATOM
      1 C         142.6327  140.4109  168.6718 C.ar    1  UNL1        0.1285
      2 N         143.0050  139.2995  167.7356 N.ar    1  UNL1       -0.1992
      3 C         142.4174  139.2523  166.3563 C.ar    1  UNL1        0.2215
      4 N         141.4577  140.3164  165.9131 N.ar    1  UNL1       -0.2179
      5 C         141.0854  141.4277  166.8492 C.ar    1  UNL1        0.0642
      6 C         141.6730  141.4750  168.2286 C.ar    1  UNL1        0.0232
      7 C         141.1231  142.6841  168.9255 C.3     1  UNL1        0.0311
      8 C         140.1958  143.3841  167.9768 C.3     1  UNL1        0.0151
      9 C         140.1724  142.6077  166.6936 C.3     1  UNL1        0.0627
     10 C         139.3760  142.9509  165.4698 C.ar    1  UNL1       -0.0169
     11 C         139.5097  144.3076  164.8441 C.ar    1  UNL1       -0.0039
     12 C         138.7132  144.6509  163.6202 C.ar    1  UNL1       -0.0003
     13 C         137.7831  143.6375  163.0220 C.ar    1  UNL1       -0.0000
     14 C         137.6494  142.2808  163.6478 C.ar    1  UNL1       -0.0003
     15 C         138.4458  141.9375  164.8716 C.ar    1  UNL1       -0.0039
     16 C         142.3208  140.4262  171.2510 C.3     1  UNL1        0.1096
     17 N         143.2203  140.4580  170.0511 N.pl3   1  UNL1       -0.3168
     18 H         144.1964  140.5099  170.1689 H       1  UNL1        0.1482
     19 N         142.7897  138.1409  165.4202 N.pl3   1  UNL1       -0.2824
     20 H         143.1833  137.3106  165.7736 H       1  UNL1        0.1551
     21 C         142.5621  138.2946  163.9455 C.ar    1  UNL1        0.0536
     22 C         143.6544  138.8338  163.0702 C.ar    1  UNL1        0.0164
     23 C         143.4268  138.9875  161.5955 C.ar    1  UNL1        0.0219
     24 C         142.1068  138.6022  160.9962 C.ar    1  UNL1        0.0995
     25 C         141.0145  138.0631  161.8715 C.ar    1  UNL1        0.1559
     26 C         141.2421  137.9093  163.3462 C.ar    1  UNL1        0.0531
     27 N         141.8792  138.7559  159.5216 N.ar    1  UNL1       -0.2828
     28 C         141.0227  139.7982  158.8657 C.ar    1  UNL1        0.1837
     29 N         141.0823  139.5809  157.3826 N.ar    1  UNL1       -0.2120
     30 C         141.9756  138.4044  157.1221 C.ar    1  UNL1        0.1575
     31 CL        142.3165  137.8372  155.7759 Cl      1  UNL1       -0.0597
     32 C         142.4681  137.8945  158.4440 C.ar    1  UNL1        0.1125
     33 O         139.6945  137.6777  161.2722 O.3     1  UNL1       -0.4699
     34 C         138.4193  138.1846  161.8777 C.3     1  UNL1        0.2525
@<TRIPOS>BOND
     1    16    17    1
     2    17     1    1
     3     1     2   ar
     4     2     3   ar
     5     3    19    1
     6    19    21    1
     7    21    22   ar
     8    22    23   ar
     9    23    24   ar
    10    24    27    1
    11    27    28   ar
    12    28    29   ar
    13    29    30   ar
    14    30    31    1
    15    30    32   ar
    16    24    25   ar
    17    25    33    1
    18    33    34    1
    19    25    26   ar
    20     3     4   ar
    21     4     5   ar
    22     5     6   ar
    23     6     7    1
    24     7     8    1
    25     8     9    1
    26     9    10    1
    27    10    11   ar
    28    11    12   ar
    29    12    13   ar
    30    13    14   ar
    31    14    15   ar
    32     6     1   ar
    33    15    10   ar
    34    26    21   ar
    35     9     5    1
    36    32    27   ar
    37    17    18    1
    38    19    20    1
@<TRIPOS>MOLECULE
*****
 34 38 0 0 0
SMALL
GASTEIGER

@<TRIPOS>ATOM
      1 C         141.2188  141.8745  168.6326 C.ar    1  UNL1        0.1285
      2 N         140.4601  142.9112  167.8581 N.ar    1  UNL1       -0.1992
      3 C         140.3542  142.8041  166.3658 C.ar    1  UNL1        0.2215
      4 N         141.0070  141.6602  165.6477 N.ar    1  UNL1       -0.2179
      5 C         141.7656  140.6236  166.4222 C.ar    1  UNL1        0.0642
      6 C         141.8715  140.7307  167.9146 C.ar    1  UNL1        0.0232
      7 C         142.6793  139.5665  168.4068 C.3     1  UNL1        0.0311
      8 C         143.0726  138.7399  167.2185 C.3     1  UNL1        0.0151
      9 C         142.5079  139.3931  165.9920 C.3     1  UNL1        0.0627
     10 C         142.6591  138.9022  164.5827 C.ar    1  UNL1       -0.0169
     11 C         141.5738  138.0787  163.9550 C.ar    1  UNL1       -0.0039
     12 C         141.7249  137.5876  162.5456 C.ar    1  UNL1       -0.0003
     13 C         142.9612  137.9201  161.7641 C.ar    1  UNL1       -0.0000
     14 C         144.0465  138.7437  162.3919 C.ar    1  UNL1       -0.0003
     15 C         143.8954  139.2347  163.8011 C.ar    1  UNL1       -0.0039
     16 C         142.5278  142.6261  170.7472 C.3     1  UNL1        0.1096
     17 N         141.3246  141.9818  170.1250 N.pl3   1  UNL1       -0.3168
     18 H         140.6044  141.6292  170.6962 H       1  UNL1        0.1482
     19 N         139.5955  143.8408  165.5912 N.pl3   1  UNL1       -0.2824
     20 H         138.8853  144.3618  166.0309 H       1  UNL1        0.1551
     21 C         139.9191  144.0835  164.1468 C.ar    1  UNL1        0.0536
     22 C         141.1474  144.8594  163.7734 C.ar    1  UNL1        0.0164
     23 C         141.4709  145.1021  162.3290 C.ar    1  UNL1        0.0219
     24 C         140.5661  144.5690  161.2579 C.ar    1  UNL1        0.0995
     25 C         139.3379  143.7932  161.6312 C.ar    1  UNL1        0.1559
     26 C         139.0143  143.5504  163.0757 C.ar    1  UNL1        0.0531
     27 N         140.8896  144.8117  159.8135 N.ar    1  UNL1       -0.2828
     28 C         141.9836  144.1474  159.0313 C.ar    1  UNL1        0.1837
     29 N         141.9461  144.6865  157.6320 N.ar    1  UNL1       -0.2120
     30 C         140.8289  145.6840  157.5494 C.ar    1  UNL1        0.1575
     31 CL        140.4340  146.4668  156.3322 Cl      1  UNL1       -0.0597
     32 C         140.1760  145.7614  158.8976 C.ar    1  UNL1        0.1125
     33 O         138.4330  143.2600  160.5602 O.3     1  UNL1       -0.4699
     34 C         138.5860  141.8457  160.0846 C.3     1  UNL1        0.2525
@<TRIPOS>BOND
     1    16    17    1
     2    17     1    1
     3     1     2   ar
     4     2     3   ar
     5     3    19    1
     6    19    21    1
     7    21    22   ar
     8    22    23   ar
     9    23    24   ar
    10    24    27    1
    11    27    28   ar
    12    28    29   ar
    13    29    30   ar
    14    30    31    1
    15    30    32   ar
    16    24    25   ar
    17    25    33    1
    18    33    34    1
    19    25    26   ar
    20     3     4   ar
    21     4     5   ar
    22     5     6   ar
    23     6     7    1
    24     7     8    1
    25     8     9    1
    26     9    10    1
    27    10    11   ar
    28    11    12   ar
    29    12    13   ar
    30    13    14   ar
    31    14    15   ar
    32     6     1   ar
    33    15    10   ar
    34    26    21   ar
    35     9     5    1
    36    32    27   ar
    37    17    18    1
    38    19    20    1
@<TRIPOS>MOLECULE
*****
 34 38 0 0 0
SMALL
GASTEIGER

@<TRIPOS>ATOM
      1 C         142.9360  138.8156  159.2321 C.ar    1  UNL1        0.1285
      2 N         142.6407  137.9534  160.4235 N.ar    1  UNL1       -0.1992
      3 C         142.4081  138.5822  161.7652 C.ar    1  UNL1        0.2215
      4 N         142.4707  140.0733  161.9157 N.ar    1  UNL1       -0.2179
      5 C         142.7660  140.9356  160.7244 C.ar    1  UNL1        0.0642
      6 C         142.9986  140.3067  159.3826 C.ar    1  UNL1        0.0232
      7 C         143.2670  141.4046  158.3964 C.3     1  UNL1        0.0311
      8 C         143.2003  142.7120  159.1288 C.3     1  UNL1        0.0151
      9 C         142.8906  142.4221  160.5675 C.3     1  UNL1        0.0627
     10 C         142.7332  143.4401  161.6579 C.ar    1  UNL1       -0.0169
     11 C         141.3957  144.0718  161.9068 C.ar    1  UNL1       -0.0039
     12 C         141.2383  145.0898  162.9973 C.ar    1  UNL1       -0.0003
     13 C         142.4183  145.4760  163.8387 C.ar    1  UNL1       -0.0000
     14 C         143.7559  144.8442  163.5898 C.ar    1  UNL1       -0.0003
     15 C         143.9134  143.8263  162.4995 C.ar    1  UNL1       -0.0039
     16 C         142.7164  136.7800  157.6328 C.3     1  UNL1        0.1096
     17 N         143.1686  138.1867  157.8903 N.pl3   1  UNL1       -0.3168
     18 H         143.6182  138.6973  157.1786 H       1  UNL1        0.1482
     19 N         142.1128  137.7199  162.9567 N.pl3   1  UNL1       -0.2824
     20 H         142.0944  136.7401  162.8628 H       1  UNL1        0.1551
     21 C         141.8455  138.3506  164.2911 C.ar    1  UNL1        0.0536
     22 C         142.9860  138.6707  165.2114 C.ar    1  UNL1        0.0164
     23 C         142.7188  139.3015  166.5458 C.ar    1  UNL1        0.0219
     24 C         141.3109  139.6121  166.9600 C.ar    1  UNL1        0.0995
     25 C         140.1705  139.2920  166.0399 C.ar    1  UNL1        0.1559
     26 C         140.4378  138.6613  164.7053 C.ar    1  UNL1        0.0531
     27 N         141.0436  140.2428  168.2944 N.ar    1  UNL1       -0.2828
     28 C         141.3714  139.6484  169.6321 C.ar    1  UNL1        0.1837
     29 N         140.9320  140.6169  170.6899 N.ar    1  UNL1       -0.2120
     30 C         140.3328  141.8099  170.0061 C.ar    1  UNL1        0.1575
     31 CL        139.7643  143.0214  170.6837 Cl      1  UNL1       -0.0597
     32 C         140.4017  141.5787  168.5256 C.ar    1  UNL1        0.1125
     33 O         138.7626  139.6026  166.4540 O.3     1  UNL1       -0.4699
     34 C         137.7851  138.4884  166.6832 C.3     1  UNL1        0.2525
@<TRIPOS>BOND
     1    16    17    1
     2    17     1    1
     3     1     2   ar
     4     2     3   ar
     5     3    19    1
     6    19    21    1
     7    21    22   ar
     8    22    23   ar
     9    23    24   ar
    10    24    27    1
    11    27    28   ar
    12    28    29   ar
    13    29    30   ar
    14    30    31    1
    15    30    32   ar
    16    24    25   ar
    17    25    33    1
    18    33    34    1
    19    25    26   ar
    20     3     4   ar
    21     4     5   ar
    22     5     6   ar
    23     6     7    1
    24     7     8    1
    25     8     9    1
    26     9    10    1
    27    10    11   ar
    28    11    12   ar
    29    12    13   ar
    30    13    14   ar
    31    14    15   ar
    32     6     1   ar
    33    15    10   ar
    34    26    21   ar
    35     9     5    1
    36    32    27   ar
    37    17    18    1
    38    19    20    1
@<TRIPOS>MOLECULE
*****
 34 38 0 0 0
SMALL
GASTEIGER

@<TRIPOS>ATOM
      1 C         142.8996  138.8820  157.7517 C.ar    1  UNL1        0.1285
      2 N         141.7250  138.2319  158.4210 N.ar    1  UNL1       -0.1992
      3 C         141.0941  138.8755  159.6199 C.ar    1  UNL1        0.2215
      4 N         141.6376  140.1694  160.1497 N.ar    1  UNL1       -0.2179
      5 C         142.8121  140.8195  159.4804 C.ar    1  UNL1        0.0642
      6 C         143.4430  140.1758  158.2815 C.ar    1  UNL1        0.0232
      7 C         144.5814  141.0443  157.8343 C.3     1  UNL1        0.0311
      8 C         144.6539  142.2247  158.7569 C.3     1  UNL1        0.0151
      9 C         143.5604  142.0858  159.7743 C.3     1  UNL1        0.0627
     10 C         143.2669  143.0448  160.8897 C.ar    1  UNL1       -0.0169
     11 C         141.9251  143.7101  160.9731 C.ar    1  UNL1       -0.0039
     12 C         141.6314  144.6692  162.0885 C.ar    1  UNL1       -0.0003
     13 C         142.6797  144.9630  163.1204 C.ar    1  UNL1       -0.0000
     14 C         144.0215  144.2977  163.0369 C.ar    1  UNL1       -0.0003
     15 C         144.3152  143.3387  161.9216 C.ar    1  UNL1       -0.0039
     16 C         143.3663  136.7657  156.3187 C.3     1  UNL1        0.1096
     17 N         143.5305  138.2382  156.5527 N.pl3   1  UNL1       -0.3168
     18 H         144.0523  138.7821  155.9194 H       1  UNL1        0.1482
     19 N         139.9195  138.2254  160.2893 N.pl3   1  UNL1       -0.2824
     20 H         139.3122  137.6512  159.7690 H       1  UNL1        0.1551
     21 C         139.6704  138.4503  161.7512 C.ar    1  UNL1        0.0536
     22 C         140.3726  137.6032  162.7708 C.ar    1  UNL1        0.0164
     23 C         140.1235  137.8281  164.2328 C.ar    1  UNL1        0.0219
     24 C         139.1721  138.9002  164.6752 C.ar    1  UNL1        0.0995
     25 C         138.4700  139.7472  163.6558 C.ar    1  UNL1        0.1559
     26 C         138.7191  139.5223  162.1937 C.ar    1  UNL1        0.0531
     27 N         138.9230  139.1250  166.1372 N.ar    1  UNL1       -0.2828
     28 C         137.7826  138.5638  166.9337 C.ar    1  UNL1        0.1837
     29 N         137.9253  139.0425  168.3482 N.ar    1  UNL1       -0.2120
     30 C         139.1539  139.8996  168.4257 C.ar    1  UNL1        0.1575
     31 CL        139.6745  140.5853  169.6541 Cl      1  UNL1       -0.0597
     32 C         139.7705  139.9506  167.0592 C.ar    1  UNL1        0.1125
     33 O         137.5186  140.8192  164.0981 O.3     1  UNL1       -0.4699
     34 C         137.9738  142.2471  164.1600 C.3     1  UNL1        0.2525
@<TRIPOS>BOND
     1    16    17    1
     2    17     1    1
     3     1     2   ar
     4     2     3   ar
     5     3    19    1
     6    19    21    1
     7    21    22   ar
     8    22    23   ar
     9    23    24   ar
    10    24    27    1
    11    27    28   ar
    12    28    29   ar
    13    29    30   ar
    14    30    31    1
    15    30    32   ar
    16    24    25   ar
    17    25    33    1
    18    33    34    1
    19    25    26   ar
    20     3     4   ar
    21     4     5   ar
    22     5     6   ar
    23     6     7    1
    24     7     8    1
    25     8     9    1
    26     9    10    1
    27    10    11   ar
    28    11    12   ar
    29    12    13   ar
    30    13    14   ar
    31    14    15   ar
    32     6     1   ar
    33    15    10   ar
    34    26    21   ar
    35     9     5    1
    36    32    27   ar
    37    17    18    1
    38    19    20    1
@<TRIPOS>MOLECULE
*****
 34 38 0 0 0
SMALL
GASTEIGER

@<TRIPOS>ATOM
      1 C         144.5246  142.8697  158.8763 C.ar    1  UNL1        0.1285
      2 N         145.2683  142.5189  160.1309 N.ar    1  UNL1       -0.1992
      3 C         144.5561  142.5227  161.4510 C.ar    1  UNL1        0.2215
      4 N         143.1001  142.8772  161.5166 N.ar    1  UNL1       -0.2179
      5 C         142.3563  143.2279  160.2621 C.ar    1  UNL1        0.0642
      6 C         143.0685  143.2242  158.9420 C.ar    1  UNL1        0.0232
      7 C         142.0808  143.6102  157.8812 C.3     1  UNL1        0.0311
      8 C         140.7580  143.8526  158.5458 C.3     1  UNL1        0.0151
      9 C         140.9283  143.6163  160.0172 C.3     1  UNL1        0.0627
     10 C         139.8584  143.7458  161.0606 C.ar    1  UNL1       -0.0169
     11 C         139.8503  144.9279  161.9838 C.ar    1  UNL1       -0.0039
     12 C         138.7804  145.0574  163.0273 C.ar    1  UNL1       -0.0003
     13 C         137.7187  144.0047  163.1474 C.ar    1  UNL1       -0.0000
     14 C         137.7269  142.8225  162.2241 C.ar    1  UNL1       -0.0003
     15 C         138.7967  142.6930  161.1808 C.ar    1  UNL1       -0.0039
     16 C         145.5406  141.5662  156.8717 C.3     1  UNL1        0.1096
     17 N         145.2369  142.8659  157.5562 N.pl3   1  UNL1       -0.3168
     18 H         145.5050  143.7164  157.1391 H       1  UNL1        0.1482
     19 N         145.2999  142.1720  162.7056 N.pl3   1  UNL1       -0.2824
     20 H         146.2840  142.1433  162.7027 H       1  UNL1        0.1551
     21 C         144.5442  141.8650  163.9644 C.ar    1  UNL1        0.0536
     22 C         144.2561  142.9570  164.9516 C.ar    1  UNL1        0.0164
     23 C         143.5004  142.6500  166.2104 C.ar    1  UNL1        0.0219
     24 C         143.0328  141.2508  166.4820 C.ar    1  UNL1        0.0995
     25 C         143.3209  140.1588  165.4950 C.ar    1  UNL1        0.1559
     26 C         144.0766  140.4659  164.2361 C.ar    1  UNL1        0.0531
     27 N         142.2771  140.9437  167.7409 N.ar    1  UNL1       -0.2828
     28 C         142.8796  140.6839  169.0897 C.ar    1  UNL1        0.1837
     29 N         141.7612  140.4222  170.0544 N.ar    1  UNL1       -0.2120
     30 C         140.4674  140.5203  169.3017 C.ar    1  UNL1        0.1575
     31 CL        139.0955  140.3296  169.8777 Cl      1  UNL1       -0.0597
     32 C         140.7863  140.8427  167.8719 C.ar    1  UNL1        0.1125
     33 O         142.8534  138.7596  165.7666 O.3     1  UNL1       -0.4699
     34 C         141.7133  138.1838  164.9802 C.3     1  UNL1        0.2525
@<TRIPOS>BOND
     1    16    17    1
     2    17     1    1
     3     1     2   ar
     4     2     3   ar
     5     3    19    1
     6    19    21    1
     7    21    22   ar
     8    22    23   ar
     9    23    24   ar
    10    24    27    1
    11    27    28   ar
    12    28    29   ar
    13    29    30   ar
    14    30    31    1
    15    30    32   ar
    16    24    25   ar
    17    25    33    1
    18    33    34    1
    19    25    26   ar
    20     3     4   ar
    21     4     5   ar
    22     5     6   ar
    23     6     7    1
    24     7     8    1
    25     8     9    1
    26     9    10    1
    27    10    11   ar
    28    11    12   ar
    29    12    13   ar
    30    13    14   ar
    31    14    15   ar
    32     6     1   ar
    33    15    10   ar
    34    26    21   ar
    35     9     5    1
    36    32    27   ar
    37    17    18    1
    38    19    20    1
@<TRIPOS>MOLECULE
*****
 34 38 0 0 0
SMALL
GASTEIGER

@<TRIPOS>ATOM
      1 C         142.6105  139.9389  168.4459 C.ar    1  UNL1        0.1285
      2 N         143.1989  139.1201  167.3353 N.ar    1  UNL1       -0.1992
      3 C         142.9358  139.4946  165.9069 C.ar    1  UNL1        0.2215
      4 N         142.0844  140.6878  165.5889 N.ar    1  UNL1       -0.2179
      5 C         141.4960  141.5066  166.6995 C.ar    1  UNL1        0.0642
      6 C         141.7590  141.1322  168.1280 C.ar    1  UNL1        0.0232
      7 C         141.0497  142.1212  169.0047 C.3     1  UNL1        0.0311
      8 C         140.3482  143.1070  168.1180 C.3     1  UNL1        0.0151
      9 C         140.6240  142.7272  166.6933 C.3     1  UNL1        0.0627
     10 C         140.1169  143.4423  165.4762 C.ar    1  UNL1       -0.0169
     11 C         138.6466  143.4698  165.1807 C.ar    1  UNL1       -0.0039
     12 C         138.1394  144.1850  163.9635 C.ar    1  UNL1       -0.0003
     13 C         139.1026  144.8726  163.0419 C.ar    1  UNL1       -0.0000
     14 C         140.5730  144.8450  163.3375 C.ar    1  UNL1       -0.0003
     15 C         141.0802  144.1299  164.5545 C.ar    1  UNL1       -0.0039
     16 C         142.9111  138.1197  170.2763 C.3     1  UNL1        0.1096
     17 N         142.8736  139.5644  169.8744 N.pl3   1  UNL1       -0.3168
     18 H         143.0217  140.2667  170.5482 H       1  UNL1        0.1482
     19 N         143.5242  138.6758  164.7962 N.pl3   1  UNL1       -0.2824
     20 H         144.3471  138.1574  164.9495 H       1  UNL1        0.1551
     21 C         142.8589  138.6469  163.4522 C.ar    1  UNL1        0.0536
     22 C         141.6310  137.8116  163.2409 C.ar    1  UNL1        0.0164
     23 C         140.9657  137.7827  161.8968 C.ar    1  UNL1        0.0219
     24 C         141.5283  138.5892  160.7640 C.ar    1  UNL1        0.0995
     25 C         142.7561  139.4244  160.9753 C.ar    1  UNL1        0.1559
     26 C         143.4215  139.4533  162.3194 C.ar    1  UNL1        0.0531
     27 N         140.8630  138.5603  159.4200 N.ar    1  UNL1       -0.2828
     28 C         139.4913  139.0786  159.1039 C.ar    1  UNL1        0.1837
     29 N         139.2330  138.8467  157.6446 N.ar    1  UNL1       -0.2120
     30 C         140.4451  138.1850  157.0588 C.ar    1  UNL1        0.1575
     31 CL        140.6192  137.7727  155.6271 Cl      1  UNL1       -0.0597
     32 C         141.4524  138.0080  158.1560 C.ar    1  UNL1        0.1125
     33 O         143.3187  140.2308  159.8425 O.3     1  UNL1       -0.4699
     34 C         142.7667  141.5934  159.5451 C.3     1  UNL1        0.2525
@<TRIPOS>BOND
     1    16    17    1
     2    17     1    1
     3     1     2   ar
     4     2     3   ar
     5     3    19    1
     6    19    21    1
     7    21    22   ar
     8    22    23   ar
     9    23    24   ar
    10    24    27    1
    11    27    28   ar
    12    28    29   ar
    13    29    30   ar
    14    30    31    1
    15    30    32   ar
    16    24    25   ar
    17    25    33    1
    18    33    34    1
    19    25    26   ar
    20     3     4   ar
    21     4     5   ar
    22     5     6   ar
    23     6     7    1
    24     7     8    1
    25     8     9    1
    26     9    10    1
    27    10    11   ar
    28    11    12   ar
    29    12    13   ar
    30    13    14   ar
    31    14    15   ar
    32     6     1   ar
    33    15    10   ar
    34    26    21   ar
    35     9     5    1
    36    32    27   ar
    37    17    18    1
    38    19    20    1
