@<TRIPOS>MOLECULE
*****
 23 24 0 0 0
SMALL
GASTEIGER

@<TRIPOS>ATOM
      1 C         138.8501  138.8479  164.7967 C.3     1  UNL1        0.0697
      2 C         138.4539  139.1123  166.2190 C.2     1  UNL1        0.1732
      3 O         137.3104  138.3592  166.8315 O.2     1  UNL1       -0.2913
      4 C         139.2014  140.1298  167.0290 C.ar    1  UNL1        0.0408
      5 C         139.8498  141.2996  166.3500 C.ar    1  UNL1        0.0032
      6 C         140.5972  142.3171  167.1600 C.ar    1  UNL1        0.0064
      7 C         140.6962  142.1648  168.6490 C.ar    1  UNL1        0.0753
      8 C         140.0478  140.9949  169.3279 C.ar    1  UNL1        0.2901
      9 C         139.3004  139.9775  168.5180 C.ar    1  UNL1        0.0781
     10 N         140.1468  140.8426  170.8169 N.pl3   1  UNL1        0.0809
     11 O         139.7538  139.5488  171.4662 O.2     1  UNL1        0.0415
     12 O         140.6387  141.9840  171.6565 O.co2   1  UNL1       -0.5760
     13 C         139.6143  137.6046  164.4497 C.3     1  UNL1        0.0177
     14 C         141.0939  137.5427  164.6879 C.3     1  UNL1        0.0855
     15 O         141.7871  139.3304  162.9347 O.2     1  UNL1       -0.2751
     16 C         141.9680  138.6913  164.2796 C.2     1  UNL1        0.2224
     17 N         143.0230  139.2010  165.2164 N.am    1  UNL1       -0.3060
     18 H         143.1417  138.7816  166.0991 H       1  UNL1        0.1494
     19 C         143.8970  140.3496  164.8081 C.3     1  UNL1        0.0716
     20 C         145.1869  140.2496  164.0489 C.3     1  UNL1        0.0196
     21 C         145.7217  141.6381  163.8589 C.3     1  UNL1        0.0017
     22 C         144.7623  142.5962  164.5007 C.3     1  UNL1        0.0017
     23 C         143.6346  141.7998  165.0873 C.3     1  UNL1        0.0196
@<TRIPOS>UNITY_ATOM_ATTR
10 1
charge 1
12 1
charge -1
@<TRIPOS>BOND
     1    15    16    2
     2    16    14    1
     3    14    13    1
     4    13     1    1
     5     1     2    1
     6     2     3    2
     7     2     4    1
     8     4     5   ar
     9     5     6   ar
    10     6     7   ar
    11     7     8   ar
    12     8    10    1
    13    10    11    2
    14    10    12    1
    15     8     9   ar
    16    16    17   am
    17    17    19    1
    18    19    20    1
    19    20    21    1
    20    21    22    1
    21    22    23    1
    22     9     4   ar
    23    23    19    1
    24    17    18    1
@<TRIPOS>MOLECULE
*****
 23 24 0 0 0
SMALL
GASTEIGER

@<TRIPOS>ATOM
      1 C         139.6218  138.1499  165.2780 C.3     1  UNL1        0.0697
      2 C         138.8760  138.9305  166.3194 C.2     1  UNL1        0.1732
      3 O         137.4857  138.5239  166.7089 O.2     1  UNL1       -0.2913
      4 C         139.5207  140.1177  166.9715 C.ar    1  UNL1        0.0408
      5 C         140.2481  141.1291  166.1362 C.ar    1  UNL1        0.0032
      6 C         140.8927  142.3162  166.7882 C.ar    1  UNL1        0.0064
      7 C         140.8098  142.4919  168.2756 C.ar    1  UNL1        0.0753
      8 C         140.0823  141.4805  169.1109 C.ar    1  UNL1        0.2901
      9 C         139.4378  140.2934  168.4589 C.ar    1  UNL1        0.0781
     10 N         139.9994  141.6562  170.5983 N.pl3   1  UNL1        0.0809
     11 O         140.3025  140.5026  171.5078 O.2     1  UNL1        0.0415
     12 O         139.6135  142.9855  171.1761 O.co2   1  UNL1       -0.5760
     13 C         138.8805  137.5342  164.1284 C.3     1  UNL1        0.0177
     14 C         138.5069  138.3723  162.9419 C.3     1  UNL1        0.0855
     15 O         139.9857  140.4758  162.5703 O.2     1  UNL1       -0.2751
     16 C         138.6834  139.8610  162.9898 C.2     1  UNL1        0.2224
     17 N         137.5575  140.7351  163.4573 N.am    1  UNL1       -0.3060
     18 H         136.7028  140.3317  163.7327 H       1  UNL1        0.1494
     19 C         137.7340  142.2239  163.5052 C.3     1  UNL1        0.0716
     20 C         137.7983  143.0647  164.7458 C.3     1  UNL1        0.0196
     21 C         137.9812  144.4937  164.3283 C.3     1  UNL1        0.0017
     22 C         138.0300  144.5362  162.8296 C.3     1  UNL1        0.0017
     23 C         137.8773  143.1333  162.3210 C.3     1  UNL1        0.0196
@<TRIPOS>UNITY_ATOM_ATTR
10 1
charge 1
12 1
charge -1
@<TRIPOS>BOND
     1    15    16    2
     2    16    14    1
     3    14    13    1
     4    13     1    1
     5     1     2    1
     6     2     3    2
     7     2     4    1
     8     4     5   ar
     9     5     6   ar
    10     6     7   ar
    11     7     8   ar
    12     8    10    1
    13    10    11    2
    14    10    12    1
    15     8     9   ar
    16    16    17   am
    17    17    19    1
    18    19    20    1
    19    20    21    1
    20    21    22    1
    21    22    23    1
    22     9     4   ar
    23    23    19    1
    24    17    18    1
@<TRIPOS>MOLECULE
*****
 23 24 0 0 0
SMALL
GASTEIGER

@<TRIPOS>ATOM
      1 C         142.4391  138.7024  165.1933 C.3     1  UNL1        0.0697
      2 C         142.9557  138.8578  166.5929 C.2     1  UNL1        0.1732
      3 O         143.9619  137.8854  167.1333 O.2     1  UNL1       -0.2913
      4 C         142.4662  139.9858  167.4521 C.ar    1  UNL1        0.0408
      5 C         142.8158  141.4017  167.1018 C.ar    1  UNL1        0.0032
      6 C         142.3263  142.5296  167.9611 C.ar    1  UNL1        0.0064
      7 C         141.4872  142.2414  169.1706 C.ar    1  UNL1        0.0753
      8 C         141.1376  140.8255  169.5209 C.ar    1  UNL1        0.2901
      9 C         141.6271  139.6976  168.6616 C.ar    1  UNL1        0.0781
     10 N         140.2986  140.5373  170.7304 N.pl3   1  UNL1        0.0809
     11 O         140.7409  141.0159  172.0814 O.2     1  UNL1        0.0415
     12 O         139.0171  139.7706  170.5889 O.co2   1  UNL1       -0.5760
     13 C         141.2654  137.8085  164.9220 C.3     1  UNL1        0.0177
     14 C         139.8696  138.3337  165.0831 C.3     1  UNL1        0.0855
     15 O         139.3697  140.0372  163.1863 O.2     1  UNL1       -0.2751
     16 C         139.5382  139.7293  164.6447 C.2     1  UNL1        0.2224
     17 N         139.3752  140.8172  165.6646 N.am    1  UNL1       -0.3060
     18 H         139.4858  140.6151  166.6217 H       1  UNL1        0.1494
     19 C         139.0438  142.2128  165.2261 C.3     1  UNL1        0.0716
     20 C         137.8138  142.6331  164.4773 C.3     1  UNL1        0.0196
     21 C         137.8940  144.1132  164.2478 C.3     1  UNL1        0.0017
     22 C         139.1735  144.6078  164.8548 C.3     1  UNL1        0.0017
     23 C         139.8841  143.4332  165.4594 C.3     1  UNL1        0.0196
@<TRIPOS>UNITY_ATOM_ATTR
10 1
charge 1
12 1
charge -1
@<TRIPOS>BOND
     1    15    16    2
     2    16    14    1
     3    14    13    1
     4    13     1    1
     5     1     2    1
     6     2     3    2
     7     2     4    1
     8     4     5   ar
     9     5     6   ar
    10     6     7   ar
    11     7     8   ar
    12     8    10    1
    13    10    11    2
    14    10    12    1
    15     8     9   ar
    16    16    17   am
    17    17    19    1
    18    19    20    1
    19    20    21    1
    20    21    22    1
    21    22    23    1
    22     9     4   ar
    23    23    19    1
    24    17    18    1
@<TRIPOS>MOLECULE
*****
 23 24 0 0 0
SMALL
GASTEIGER

@<TRIPOS>ATOM
      1 C         139.9449  144.2922  165.2482 C.3     1  UNL1        0.0697
      2 C         140.6957  143.0356  165.5755 C.2     1  UNL1        0.1732
      3 O         141.7776  142.5478  164.6581 O.2     1  UNL1       -0.2913
      4 C         140.3647  142.2668  166.8203 C.ar    1  UNL1        0.0408
      5 C         140.0389  140.8051  166.7346 C.ar    1  UNL1        0.0032
      6 C         139.7079  140.0363  167.9793 C.ar    1  UNL1        0.0064
      7 C         139.7027  140.7292  169.3097 C.ar    1  UNL1        0.0753
      8 C         140.0284  142.1909  169.3954 C.ar    1  UNL1        0.2901
      9 C         140.3594  142.9596  168.1506 C.ar    1  UNL1        0.0781
     10 N         140.0232  142.8837  170.7257 N.pl3   1  UNL1        0.0809
     11 O         139.6081  144.3220  170.8206 O.2     1  UNL1        0.0415
     12 O         140.4330  142.1383  171.9612 O.co2   1  UNL1       -0.5760
     13 C         138.5101  144.2179  164.8169 C.3     1  UNL1        0.0177
     14 C         138.1679  143.7924  163.4199 C.3     1  UNL1        0.0855
     15 O         136.7956  141.6631  162.8431 O.2     1  UNL1       -0.2751
     16 C         138.1175  142.3344  163.0711 C.2     1  UNL1        0.2224
     17 N         139.3889  141.5476  162.9504 N.am    1  UNL1       -0.3060
     18 H         140.2565  141.9882  163.1000 H       1  UNL1        0.1494
     19 C         139.3385  140.0897  162.6016 C.3     1  UNL1        0.0716
     20 C         139.1828  139.5175  161.2237 C.3     1  UNL1        0.0196
     21 C         139.1830  138.0221  161.3400 C.3     1  UNL1        0.0017
     22 C         139.3387  137.6699  162.7898 C.3     1  UNL1        0.0017
     23 C         139.4348  138.9478  163.5695 C.3     1  UNL1        0.0196
@<TRIPOS>UNITY_ATOM_ATTR
10 1
charge 1
12 1
charge -1
@<TRIPOS>BOND
     1    15    16    2
     2    16    14    1
     3    14    13    1
     4    13     1    1
     5     1     2    1
     6     2     3    2
     7     2     4    1
     8     4     5   ar
     9     5     6   ar
    10     6     7   ar
    11     7     8   ar
    12     8    10    1
    13    10    11    2
    14    10    12    1
    15     8     9   ar
    16    16    17   am
    17    17    19    1
    18    19    20    1
    19    20    21    1
    20    21    22    1
    21    22    23    1
    22     9     4   ar
    23    23    19    1
    24    17    18    1
@<TRIPOS>MOLECULE
*****
 23 24 0 0 0
SMALL
GASTEIGER

@<TRIPOS>ATOM
      1 C         142.7704  138.7080  163.1921 C.3     1  UNL1        0.0697
      2 C         141.4388  138.1002  163.5196 C.2     1  UNL1        0.1732
      3 O         141.1720  136.6598  163.1969 O.2     1  UNL1       -0.2913
      4 C         140.3739  138.9328  164.1699 C.ar    1  UNL1        0.0408
      5 C         139.9709  140.2434  163.5618 C.ar    1  UNL1        0.0032
      6 C         138.9060  141.0760  164.2121 C.ar    1  UNL1        0.0064
      7 C         138.2441  140.5979  165.4705 C.ar    1  UNL1        0.0753
      8 C         138.6472  139.2873  166.0785 C.ar    1  UNL1        0.2901
      9 C         139.7120  138.4547  165.4282 C.ar    1  UNL1        0.0781
     10 N         137.9853  138.8092  167.3368 N.pl3   1  UNL1        0.0809
     11 O         138.3760  139.3979  168.6600 O.2     1  UNL1        0.0415
     12 O         136.9329  137.7424  167.2720 O.co2   1  UNL1       -0.5760
     13 C         143.7068  139.1021  164.2958 C.3     1  UNL1        0.0177
     14 C         143.5423  138.5127  165.6652 C.3     1  UNL1        0.0855
     15 O         143.0877  138.8425  168.2019 O.2     1  UNL1       -0.2751
     16 C         143.0623  139.3706  166.7982 C.2     1  UNL1        0.2224
     17 N         142.5570  140.7568  166.5274 N.am    1  UNL1       -0.3060
     18 H         142.5404  141.1035  165.6062 H       1  UNL1        0.1494
     19 C         142.0771  141.6148  167.6604 C.3     1  UNL1        0.0716
     20 C         140.6572  142.0258  167.9149 C.3     1  UNL1        0.0196
     21 C         140.6353  142.8774  169.1496 C.3     1  UNL1        0.0017
     22 C         142.0418  142.9926  169.6581 C.3     1  UNL1        0.0017
     23 C         142.9329  142.2123  168.7377 C.3     1  UNL1        0.0196
@<TRIPOS>UNITY_ATOM_ATTR
10 1
charge 1
12 1
charge -1
@<TRIPOS>BOND
     1    15    16    2
     2    16    14    1
     3    14    13    1
     4    13     1    1
     5     1     2    1
     6     2     3    2
     7     2     4    1
     8     4     5   ar
     9     5     6   ar
    10     6     7   ar
    11     7     8   ar
    12     8    10    1
    13    10    11    2
    14    10    12    1
    15     8     9   ar
    16    16    17   am
    17    17    19    1
    18    19    20    1
    19    20    21    1
    20    21    22    1
    21    22    23    1
    22     9     4   ar
    23    23    19    1
    24    17    18    1
@<TRIPOS>MOLECULE
*****
 23 24 0 0 0
SMALL
GASTEIGER

@<TRIPOS>ATOM
      1 C         138.3796  139.6232  165.6091 C.3     1  UNL1        0.0697
      2 C         138.6744  139.4090  167.0642 C.2     1  UNL1        0.1732
      3 O         137.7363  138.5979  167.9080 O.2     1  UNL1       -0.2913
      4 C         139.9074  140.0059  167.6754 C.ar    1  UNL1        0.0408
      5 C         141.2623  139.6163  167.1631 C.ar    1  UNL1        0.0032
      6 C         142.4953  140.2132  167.7744 C.ar    1  UNL1        0.0064
      7 C         142.3733  141.1996  168.8978 C.ar    1  UNL1        0.0753
      8 C         141.0184  141.5891  169.4100 C.ar    1  UNL1        0.2901
      9 C         139.7854  140.9923  168.7988 C.ar    1  UNL1        0.0781
     10 N         140.8964  142.5755  170.5335 N.pl3   1  UNL1        0.0809
     11 O         140.6912  142.0909  171.9381 O.2     1  UNL1        0.0415
     12 O         140.9795  144.0465  170.2523 O.co2   1  UNL1       -0.5760
     13 C         138.2720  141.0161  165.0628 C.3     1  UNL1        0.0177
     14 C         139.1841  141.4609  163.9581 C.3     1  UNL1        0.0855
     15 O         141.2850  142.4550  165.1189 O.2     1  UNL1       -0.2751
     16 C         140.6690  141.4705  164.1696 C.2     1  UNL1        0.2224
     17 N         141.5380  140.4954  163.4319 N.am    1  UNL1       -0.3060
     18 H         141.1337  139.8492  162.8088 H       1  UNL1        0.1494
     19 C         143.0230  140.5050  163.6434 C.3     1  UNL1        0.0716
     20 C         143.9767  141.5538  163.1530 C.3     1  UNL1        0.0196
     21 C         145.3581  141.1645  163.5889 C.3     1  UNL1        0.0017
     22 C         145.2581  139.8750  164.3488 C.3     1  UNL1        0.0017
     23 C         143.8150  139.4675  164.3825 C.3     1  UNL1        0.0196
@<TRIPOS>UNITY_ATOM_ATTR
10 1
charge 1
12 1
charge -1
@<TRIPOS>BOND
     1    15    16    2
     2    16    14    1
     3    14    13    1
     4    13     1    1
     5     1     2    1
     6     2     3    2
     7     2     4    1
     8     4     5   ar
     9     5     6   ar
    10     6     7   ar
    11     7     8   ar
    12     8    10    1
    13    10    11    2
    14    10    12    1
    15     8     9   ar
    16    16    17   am
    17    17    19    1
    18    19    20    1
    19    20    21    1
    20    21    22    1
    21    22    23    1
    22     9     4   ar
    23    23    19    1
    24    17    18    1
@<TRIPOS>MOLECULE
*****
 23 24 0 0 0
SMALL
GASTEIGER

@<TRIPOS>ATOM
      1 C         138.3645  140.1123  165.0994 C.3     1  UNL1        0.0697
      2 C         139.8521  139.9329  165.1668 C.2     1  UNL1        0.1732
      3 O         140.6536  139.8334  163.9028 O.2     1  UNL1       -0.2913
      4 C         140.5384  139.8528  166.4983 C.ar    1  UNL1        0.0408
      5 C         141.9806  139.4478  166.5756 C.ar    1  UNL1        0.0032
      6 C         142.6667  139.3678  167.9070 C.ar    1  UNL1        0.0064
      7 C         141.9107  139.6928  169.1611 C.ar    1  UNL1        0.0753
      8 C         140.4685  140.0978  169.0838 C.ar    1  UNL1        0.2901
      9 C         139.7824  140.1778  167.7524 C.ar    1  UNL1        0.0781
     10 N         139.7125  140.4228  170.3379 N.pl3   1  UNL1        0.0809
     11 O         140.1351  141.5835  171.1889 O.2     1  UNL1        0.0415
     12 O         138.5340  139.5871  170.7411 O.co2   1  UNL1       -0.5760
     13 C         137.7734  141.1332  164.1727 C.3     1  UNL1        0.0177
     14 C         137.9495  142.5954  164.4571 C.3     1  UNL1        0.0855
     15 O         139.5991  143.8231  166.0449 O.2     1  UNL1       -0.2751
     16 C         139.3165  143.1457  164.7368 C.2     1  UNL1        0.2224
     17 N         140.4011  143.0185  163.7083 N.am    1  UNL1       -0.3060
     18 H         140.2156  142.5739  162.8497 H       1  UNL1        0.1494
     19 C         141.7681  143.5688  163.9880 C.3     1  UNL1        0.0716
     20 C         142.2625  144.9345  163.6132 C.3     1  UNL1        0.0196
     21 C         143.6808  145.0598  164.0851 C.3     1  UNL1        0.0017
     22 C         144.0630  143.7715  164.7517 C.3     1  UNL1        0.0017
     23 C         142.8809  142.8500  164.6916 C.3     1  UNL1        0.0196
@<TRIPOS>UNITY_ATOM_ATTR
10 1
charge 1
12 1
charge -1
@<TRIPOS>BOND
     1    15    16    2
     2    16    14    1
     3    14    13    1
     4    13     1    1
     5     1     2    1
     6     2     3    2
     7     2     4    1
     8     4     5   ar
     9     5     6   ar
    10     6     7   ar
    11     7     8   ar
    12     8    10    1
    13    10    11    2
    14    10    12    1
    15     8     9   ar
    16    16    17   am
    17    17    19    1
    18    19    20    1
    19    20    21    1
    20    21    22    1
    21    22    23    1
    22     9     4   ar
    23    23    19    1
    24    17    18    1
@<TRIPOS>MOLECULE
*****
 23 24 0 0 0
SMALL
GASTEIGER

@<TRIPOS>ATOM
      1 C         138.5702  137.9790  165.2577 C.3     1  UNL1        0.0697
      2 C         138.4934  139.0504  166.3047 C.2     1  UNL1        0.1732
      3 O         137.9992  138.7194  167.6817 O.2     1  UNL1       -0.2913
      4 C         138.9106  140.4530  165.9746 C.ar    1  UNL1        0.0408
      5 C         139.9352  141.1493  166.8203 C.ar    1  UNL1        0.0032
      6 C         140.3524  142.5518  166.4902 C.ar    1  UNL1        0.0064
      7 C         139.7451  143.2579  165.3144 C.ar    1  UNL1        0.0753
      8 C         138.7205  142.5615  164.4687 C.ar    1  UNL1        0.2901
      9 C         138.3033  141.1590  164.7988 C.ar    1  UNL1        0.0781
     10 N         138.1132  143.2676  163.2928 N.pl3   1  UNL1        0.0809
     11 O         138.3267  144.7411  163.1106 O.2     1  UNL1        0.0415
     12 O         137.2924  142.5002  162.2992 O.co2   1  UNL1       -0.5760
     13 C         139.7463  137.9214  164.3284 C.3     1  UNL1        0.0177
     14 C         141.0985  137.5385  164.8528 C.3     1  UNL1        0.0855
     15 O         142.8585  138.7482  166.3324 O.2     1  UNL1       -0.2751
     16 C         142.1637  138.5823  165.0134 C.2     1  UNL1        0.2224
     17 N         142.5342  139.4602  163.8549 N.am    1  UNL1       -0.3060
     18 H         142.0782  139.3514  162.9892 H       1  UNL1        0.1494
     19 C         143.5994  140.5040  164.0154 C.3     1  UNL1        0.0716
     20 C         143.4097  141.8761  164.5910 C.3     1  UNL1        0.0196
     21 C         144.7345  142.5791  164.5599 C.3     1  UNL1        0.0017
     22 C         145.7429  141.6413  163.9651 C.3     1  UNL1        0.0017
     23 C         145.0414  140.3589  163.6286 C.3     1  UNL1        0.0196
@<TRIPOS>UNITY_ATOM_ATTR
10 1
charge 1
12 1
charge -1
@<TRIPOS>BOND
     1    15    16    2
     2    16    14    1
     3    14    13    1
     4    13     1    1
     5     1     2    1
     6     2     3    2
     7     2     4    1
     8     4     5   ar
     9     5     6   ar
    10     6     7   ar
    11     7     8   ar
    12     8    10    1
    13    10    11    2
    14    10    12    1
    15     8     9   ar
    16    16    17   am
    17    17    19    1
    18    19    20    1
    19    20    21    1
    20    21    22    1
    21    22    23    1
    22     9     4   ar
    23    23    19    1
    24    17    18    1
@<TRIPOS>MOLECULE
*****
 23 24 0 0 0
SMALL
GASTEIGER

@<TRIPOS>ATOM
      1 C         143.7937  138.9486  164.7139 C.3     1  UNL1        0.0697
      2 C         143.5006  138.5807  166.1382 C.2     1  UNL1        0.1732
      3 O         144.4093  137.6395  166.8720 O.2     1  UNL1       -0.2913
      4 C         142.2987  139.1541  166.8288 C.ar    1  UNL1        0.0408
      5 C         142.4470  139.8150  168.1672 C.ar    1  UNL1        0.0032
      6 C         141.2452  140.3883  168.8577 C.ar    1  UNL1        0.0064
      7 C         139.8951  140.3008  168.2099 C.ar    1  UNL1        0.0753
      8 C         139.7469  139.6399  166.8716 C.ar    1  UNL1        0.2901
      9 C         140.9487  139.0665  166.1811 C.ar    1  UNL1        0.0781
     10 N         138.3968  139.5523  166.2238 N.pl3   1  UNL1        0.0809
     11 O         138.0441  140.4776  165.0972 O.2     1  UNL1        0.0415
     12 O         137.3994  138.5395  166.7027 O.co2   1  UNL1       -0.5760
     13 C         144.9475  139.8526  164.3949 C.3     1  UNL1        0.0177
     14 C         144.7178  141.1175  163.6221 C.3     1  UNL1        0.0855
     15 O         142.4000  141.5663  162.5376 O.2     1  UNL1       -0.2751
     16 C         143.3746  141.7841  163.6568 C.2     1  UNL1        0.2224
     17 N         143.0059  142.6687  164.8108 N.am    1  UNL1       -0.3060
     18 H         143.6456  142.8117  165.5454 H       1  UNL1        0.1494
     19 C         141.6627  143.3354  164.8455 C.3     1  UNL1        0.0716
     20 C         141.2121  144.4575  163.9578 C.3     1  UNL1        0.0196
     21 C         139.8051  144.8127  164.3377 C.3     1  UNL1        0.0017
     22 C         139.3862  143.9101  165.4602 C.3     1  UNL1        0.0017
     23 C         140.5342  142.9971  165.7740 C.3     1  UNL1        0.0196
@<TRIPOS>UNITY_ATOM_ATTR
10 1
charge 1
12 1
charge -1
@<TRIPOS>BOND
     1    15    16    2
     2    16    14    1
     3    14    13    1
     4    13     1    1
     5     1     2    1
     6     2     3    2
     7     2     4    1
     8     4     5   ar
     9     5     6   ar
    10     6     7   ar
    11     7     8   ar
    12     8    10    1
    13    10    11    2
    14    10    12    1
    15     8     9   ar
    16    16    17   am
    17    17    19    1
    18    19    20    1
    19    20    21    1
    20    21    22    1
    21    22    23    1
    22     9     4   ar
    23    23    19    1
    24    17    18    1
