@<TRIPOS>MOLECULE
*****
 32 33 0 0 0
SMALL
GASTEIGER

@<TRIPOS>ATOM
      1 O         137.1291  141.1967  162.4089 O.3     1  UNL1       -0.4102
      2 C         137.9223  140.1139  163.0786 C.ar    1  UNL1        0.1515
      3 C         138.1332  138.8006  162.3853 C.ar    1  UNL1        0.0378
      4 C         138.9264  137.7178  163.0550 C.ar    1  UNL1        0.0046
      5 C         139.5087  137.9484  164.4179 C.ar    1  UNL1        0.0177
      6 C         139.2978  139.2617  165.1112 C.ar    1  UNL1        0.0671
      7 C         138.5046  140.3445  164.4415 C.ar    1  UNL1        0.0551
      8 N         139.8801  139.4923  166.4743 N.ar    1  UNL1       -0.3033
      9 C         141.3221  139.3328  166.8555 C.ar    1  UNL1        0.0803
     10 C         141.4559  139.6648  168.3122 C.ar    1  UNL1        0.0250
     11 C         140.0966  140.0295  168.8312 C.ar    1  UNL1        0.0721
     12 C         139.1227  139.9229  167.6953 C.ar    1  UNL1        0.0846
     13 C         139.7687  140.4305  170.2389 C.2     1  UNL1        0.2443
     14 N         139.8500  139.4203  171.3447 N.am    1  UNL1       -0.3253
     15 O         139.3596  141.8417  170.5409 O.2     1  UNL1       -0.2703
     16 H         140.1185  138.4940  171.1466 H       1  UNL1        0.1453
     17 H         139.6348  139.6834  172.2687 H       1  UNL1        0.1453
     18 N         138.0110  143.5072  163.2050 N.am    1  UNL1       -0.2704
     19 C         137.7713  142.5174  162.1037 C.2     1  UNL1        0.4062
     20 O         138.1740  142.8484  160.6971 O.2     1  UNL1       -0.2260
     21 H         137.7468  143.2899  164.1282 H       1  UNL1        0.1527
     22 C         138.6533  144.8279  162.8998 C.3     1  UNL1        0.0927
     23 C         139.8880  145.2503  163.6395 C.3     1  UNL1        0.0214
     24 C         141.2111  145.2821  162.9338 C.3     1  UNL1        0.0018
     25 C         142.4839  145.1830  163.7214 C.3     1  UNL1        0.0001
     26 C         143.7617  144.7983  163.0364 C.3     1  UNL1        0.0000
     27 C         144.3777  143.4557  163.2971 C.3     1  UNL1        0.0000
     28 C         143.5297  142.3271  163.8042 C.3     1  UNL1        0.0010
     29 C         143.7739  141.7611  165.1716 C.3     1  UNL1        0.0140
     30 C         143.1552  142.4107  166.3737 C.3     1  UNL1        0.0770
     31 C         140.2335  143.0918  166.3736 C.1     1  UNL1       -0.0141
     32 C         141.6944  142.7513  166.3737 C.1     1  UNL1       -0.0779
@<TRIPOS>BOND
     1    31    32    3
     2    32    30    1
     3    30    29    1
     4    29    28    1
     5    28    27    1
     6    27    26    1
     7    26    25    1
     8    25    24    1
     9    24    23    1
    10    23    22    1
    11    22    18    1
    12    18    19   am
    13    19    20    2
    14    19     1    1
    15     1     2    1
    16     2     3   ar
    17     3     4   ar
    18     4     5   ar
    19     5     6   ar
    20     6     8    1
    21     8     9   ar
    22     9    10   ar
    23    10    11   ar
    24    11    13    1
    25    13    14   am
    26    13    15    2
    27    11    12   ar
    28     6     7   ar
    29     7     2   ar
    30    12     8   ar
    31    18    21    1
    32    14    16    1
    33    14    17    1
@<TRIPOS>MOLECULE
*****
 32 33 0 0 0
SMALL
GASTEIGER

@<TRIPOS>ATOM
      1 O         138.9266  139.4615  168.2974 O.3     1  UNL1       -0.4102
      2 C         139.0272  139.6568  166.8136 C.ar    1  UNL1        0.1515
      3 C         138.7337  138.5157  165.8853 C.ar    1  UNL1        0.0378
      4 C         138.8343  138.7110  164.4015 C.ar    1  UNL1        0.0046
      5 C         139.2284  140.0474  163.8460 C.ar    1  UNL1        0.0177
      6 C         139.5219  141.1885  164.7742 C.ar    1  UNL1        0.0671
      7 C         139.4213  140.9932  166.2581 C.ar    1  UNL1        0.0551
      8 N         139.9161  142.5250  164.2187 N.ar    1  UNL1       -0.3033
      9 C         140.2514  143.7484  165.0192 C.ar    1  UNL1        0.0803
     10 C         140.5866  144.8522  164.0605 C.ar    1  UNL1        0.0250
     11 C         140.4585  144.3109  162.6674 C.ar    1  UNL1        0.0721
     12 C         140.0441  142.8726  162.7652 C.ar    1  UNL1        0.0846
     13 C         140.7021  145.0740  161.3991 C.2     1  UNL1        0.2443
     14 N         142.0172  144.9478  160.6887 N.am    1  UNL1       -0.3253
     15 O         139.6307  145.9633  160.8413 O.2     1  UNL1       -0.2703
     16 H         142.7204  144.3641  161.0548 H       1  UNL1        0.1453
     17 H         142.1770  145.4486  159.8563 H       1  UNL1        0.1453
     18 N         141.3767  139.8439  169.0723 N.am    1  UNL1       -0.2704
     19 C         139.9108  140.1305  169.2104 C.2     1  UNL1        0.4062
     20 O         139.4292  141.0862  170.2615 O.2     1  UNL1       -0.2260
     21 H         141.6928  139.2167  168.3825 H       1  UNL1        0.1527
     22 C         142.3610  140.5130  169.9854 C.3     1  UNL1        0.0927
     23 C         143.2640  141.5877  169.4566 C.3     1  UNL1        0.0214
     24 C         142.8021  142.4711  168.3358 C.3     1  UNL1        0.0018
     25 C         143.0569  142.0720  166.9125 C.3     1  UNL1        0.0001
     26 C         143.8304  142.9824  166.0053 C.3     1  UNL1        0.0000
     27 C         143.7700  142.7886  164.5191 C.3     1  UNL1        0.0000
     28 C         144.9869  142.3281  163.7727 C.3     1  UNL1        0.0010
     29 C         145.5715  140.9754  164.0531 C.3     1  UNL1        0.0140
     30 C         144.7377  139.7435  163.8607 C.3     1  UNL1        0.0770
     31 C         143.4460  138.4223  166.2242 C.1     1  UNL1       -0.0141
     32 C         144.0919  139.0829  165.0424 C.1     1  UNL1       -0.0779
@<TRIPOS>BOND
     1    31    32    3
     2    32    30    1
     3    30    29    1
     4    29    28    1
     5    28    27    1
     6    27    26    1
     7    26    25    1
     8    25    24    1
     9    24    23    1
    10    23    22    1
    11    22    18    1
    12    18    19   am
    13    19    20    2
    14    19     1    1
    15     1     2    1
    16     2     3   ar
    17     3     4   ar
    18     4     5   ar
    19     5     6   ar
    20     6     8    1
    21     8     9   ar
    22     9    10   ar
    23    10    11   ar
    24    11    13    1
    25    13    14   am
    26    13    15    2
    27    11    12   ar
    28     6     7   ar
    29     7     2   ar
    30    12     8   ar
    31    18    21    1
    32    14    16    1
    33    14    17    1
@<TRIPOS>MOLECULE
*****
 32 33 0 0 0
SMALL
GASTEIGER

@<TRIPOS>ATOM
      1 O         142.7754  138.0549  163.0750 O.3     1  UNL1       -0.4102
      2 C         143.3834  139.3987  163.3482 C.ar    1  UNL1        0.1515
      3 C         144.8238  139.5017  163.7539 C.ar    1  UNL1        0.0378
      4 C         145.4318  140.8455  164.0271 C.ar    1  UNL1        0.0046
      5 C         144.5994  142.0862  163.8946 C.ar    1  UNL1        0.0177
      6 C         143.1590  141.9832  163.4889 C.ar    1  UNL1        0.0671
      7 C         142.5510  140.6394  163.2157 C.ar    1  UNL1        0.0551
      8 N         142.3265  143.2240  163.3564 N.ar    1  UNL1       -0.3033
      9 C         142.6937  144.5897  163.8566 C.ar    1  UNL1        0.0803
     10 C         141.5749  145.5267  163.5098 C.ar    1  UNL1        0.0250
     11 C         140.5162  144.7401  162.7952 C.ar    1  UNL1        0.0721
     12 C         140.9808  143.3170  162.7004 C.ar    1  UNL1        0.0846
     13 C         139.2205  145.2815  162.2680 C.2     1  UNL1        0.2443
     14 N         139.2179  146.4962  161.3879 N.am    1  UNL1       -0.3253
     15 O         137.9273  144.6084  162.6210 O.2     1  UNL1       -0.2703
     16 H         140.0667  146.9380  161.1563 H       1  UNL1        0.1453
     17 H         138.3675  146.8515  161.0419 H       1  UNL1        0.1453
     18 N         140.5588  137.9960  164.4288 N.am    1  UNL1       -0.2704
     19 C         141.2862  137.8820  163.1219 C.2     1  UNL1        0.4062
     20 O         140.5244  137.5950  161.8620 O.2     1  UNL1       -0.2260
     21 H         141.0588  138.1844  165.2557 H       1  UNL1        0.1527
     22 C         139.0695  137.8230  164.4757 C.3     1  UNL1        0.0927
     23 C         138.3732  137.6721  165.7957 C.3     1  UNL1        0.0214
     24 C         138.0946  138.8807  166.6392 C.3     1  UNL1        0.0018
     25 C         139.2269  139.6172  167.2916 C.3     1  UNL1        0.0001
     26 C         139.1704  139.9337  168.7568 C.3     1  UNL1        0.0000
     27 C         140.3571  140.5488  169.4376 C.3     1  UNL1        0.0000
     28 C         141.7443  140.1290  169.0512 C.3     1  UNL1        0.0010
     29 C         142.7424  141.1566  168.6066 C.3     1  UNL1        0.0140
     30 C         142.6770  141.7129  167.2151 C.3     1  UNL1        0.0770
     31 C         140.1986  143.1190  166.2767 C.1     1  UNL1       -0.0141
     32 C         141.4378  142.4159  166.7459 C.1     1  UNL1       -0.0779
@<TRIPOS>BOND
     1    31    32    3
     2    32    30    1
     3    30    29    1
     4    29    28    1
     5    28    27    1
     6    27    26    1
     7    26    25    1
     8    25    24    1
     9    24    23    1
    10    23    22    1
    11    22    18    1
    12    18    19   am
    13    19    20    2
    14    19     1    1
    15     1     2    1
    16     2     3   ar
    17     3     4   ar
    18     4     5   ar
    19     5     6   ar
    20     6     8    1
    21     8     9   ar
    22     9    10   ar
    23    10    11   ar
    24    11    13    1
    25    13    14   am
    26    13    15    2
    27    11    12   ar
    28     6     7   ar
    29     7     2   ar
    30    12     8   ar
    31    18    21    1
    32    14    16    1
    33    14    17    1
@<TRIPOS>MOLECULE
*****
 32 33 0 0 0
SMALL
GASTEIGER

@<TRIPOS>ATOM
      1 O         144.7104  142.8097  163.5790 O.3     1  UNL1       -0.4102
      2 C         144.2119  141.6529  164.3934 C.ar    1  UNL1        0.1515
      3 C         144.6774  140.2612  164.0828 C.ar    1  UNL1        0.0378
      4 C         144.1790  139.1044  164.8972 C.ar    1  UNL1        0.0046
      5 C         143.2151  139.3392  166.0223 C.ar    1  UNL1        0.0177
      6 C         142.7496  140.7309  166.3328 C.ar    1  UNL1        0.0671
      7 C         143.2480  141.8877  165.5184 C.ar    1  UNL1        0.0551
      8 N         141.7857  140.9658  167.4579 N.ar    1  UNL1       -0.3033
      9 C         140.5953  140.1160  167.7910 C.ar    1  UNL1        0.0803
     10 C         139.9168  140.7167  168.9863 C.ar    1  UNL1        0.0250
     11 C         140.6879  141.9377  169.3920 C.ar    1  UNL1        0.0721
     12 C         141.8429  142.0917  168.4474 C.ar    1  UNL1        0.0846
     13 C         140.3612  142.8455  170.5406 C.2     1  UNL1        0.2443
     14 N         140.0237  144.2847  170.2867 N.am    1  UNL1       -0.3253
     15 O         140.3721  142.3139  171.9432 O.2     1  UNL1       -0.2703
     16 H         140.0165  144.6336  169.3661 H       1  UNL1        0.1453
     17 H         139.8093  144.8805  171.0405 H       1  UNL1        0.1453
     18 N         142.5824  143.5717  162.2979 N.am    1  UNL1       -0.2704
     19 C         143.7643  143.8966  163.1625 C.2     1  UNL1        0.4062
     20 O         144.0000  145.3086  163.6107 O.2     1  UNL1       -0.2260
     21 H         142.4276  142.6450  162.0037 H       1  UNL1        0.1527
     22 C         141.6363  144.6587  161.8815 C.3     1  UNL1        0.0927
     23 C         140.6473  145.2098  162.8655 C.3     1  UNL1        0.0214
     24 C         139.1987  145.3187  162.4918 C.3     1  UNL1        0.0018
     25 C         138.2967  144.1283  162.6307 C.3     1  UNL1        0.0001
     26 C         137.7128  143.7818  163.9683 C.3     1  UNL1        0.0000
     27 C         137.8929  142.4029  164.5308 C.3     1  UNL1        0.0000
     28 C         139.2597  141.9258  164.9236 C.3     1  UNL1        0.0010
     29 C         140.1833  141.3595  163.8862 C.3     1  UNL1        0.0140
     30 C         140.1246  139.8997  163.5463 C.3     1  UNL1        0.0770
     31 C         138.7093  137.9894  165.3759 C.1     1  UNL1       -0.0141
     32 C         139.4169  138.9446  164.4611 C.1     1  UNL1       -0.0779
@<TRIPOS>BOND
     1    31    32    3
     2    32    30    1
     3    30    29    1
     4    29    28    1
     5    28    27    1
     6    27    26    1
     7    26    25    1
     8    25    24    1
     9    24    23    1
    10    23    22    1
    11    22    18    1
    12    18    19   am
    13    19    20    2
    14    19     1    1
    15     1     2    1
    16     2     3   ar
    17     3     4   ar
    18     4     5   ar
    19     5     6   ar
    20     6     8    1
    21     8     9   ar
    22     9    10   ar
    23    10    11   ar
    24    11    13    1
    25    13    14   am
    26    13    15    2
    27    11    12   ar
    28     6     7   ar
    29     7     2   ar
    30    12     8   ar
    31    18    21    1
    32    14    16    1
    33    14    17    1
@<TRIPOS>MOLECULE
*****
 32 33 0 0 0
SMALL
GASTEIGER

@<TRIPOS>ATOM
      1 O         137.2420  141.9610  162.6559 O.3     1  UNL1       -0.4102
      2 C         137.9278  141.0043  163.5857 C.ar    1  UNL1        0.1515
      3 C         138.0408  139.5540  163.2201 C.ar    1  UNL1        0.0378
      4 C         138.7265  138.5973  164.1499 C.ar    1  UNL1        0.0046
      5 C         139.2992  139.0909  165.4453 C.ar    1  UNL1        0.0177
      6 C         139.1862  140.5412  165.8110 C.ar    1  UNL1        0.0671
      7 C         138.5005  141.4979  164.8812 C.ar    1  UNL1        0.0551
      8 N         139.7590  141.0349  167.1065 N.ar    1  UNL1       -0.3033
      9 C         140.5342  142.3043  167.3009 C.ar    1  UNL1        0.0803
     10 C         140.9114  142.3999  168.7495 C.ar    1  UNL1        0.0250
     11 C         140.3694  141.1895  169.4504 C.ar    1  UNL1        0.0721
     12 C         139.6571  140.3460  168.4350 C.ar    1  UNL1        0.0846
     13 C         140.5141  140.8775  170.9105 C.2     1  UNL1        0.2443
     14 N         140.0603  139.5505  171.4424 N.am    1  UNL1       -0.3253
     15 O         141.1127  141.8926  171.8386 O.2     1  UNL1       -0.2703
     16 H         139.6675  138.8843  170.8333 H       1  UNL1        0.1453
     17 H         140.1553  139.3457  172.4007 H       1  UNL1        0.1453
     18 N         138.6442  144.1421  162.8179 N.am    1  UNL1       -0.2704
     19 C         138.0263  143.0534  161.9916 C.2     1  UNL1        0.4062
     20 O         138.1927  143.0572  160.5008 O.2     1  UNL1       -0.2260
     21 H         138.5350  144.1397  163.7964 H       1  UNL1        0.1527
     22 C         139.4285  145.2346  162.1535 C.3     1  UNL1        0.0927
     23 C         140.9256  145.2460  162.2463 C.3     1  UNL1        0.0214
     24 C         141.5938  145.5674  163.5502 C.3     1  UNL1        0.0018
     25 C         142.9295  144.9679  163.8763 C.3     1  UNL1        0.0001
     26 C         143.0137  143.5663  164.4043 C.3     1  UNL1        0.0000
     27 C         144.3528  142.9336  164.6418 C.3     1  UNL1        0.0000
     28 C         144.6678  141.5964  164.0396 C.3     1  UNL1        0.0010
     29 C         144.1309  140.3451  164.6690 C.3     1  UNL1        0.0140
     30 C         142.7395  139.8835  164.3517 C.3     1  UNL1        0.0770
     31 C         141.2569  141.0733  162.0309 C.1     1  UNL1       -0.0141
     32 C         141.9982  140.4784  163.1913 C.1     1  UNL1       -0.0779
@<TRIPOS>BOND
     1    31    32    3
     2    32    30    1
     3    30    29    1
     4    29    28    1
     5    28    27    1
     6    27    26    1
     7    26    25    1
     8    25    24    1
     9    24    23    1
    10    23    22    1
    11    22    18    1
    12    18    19   am
    13    19    20    2
    14    19     1    1
    15     1     2    1
    16     2     3   ar
    17     3     4   ar
    18     4     5   ar
    19     5     6   ar
    20     6     8    1
    21     8     9   ar
    22     9    10   ar
    23    10    11   ar
    24    11    13    1
    25    13    14   am
    26    13    15    2
    27    11    12   ar
    28     6     7   ar
    29     7     2   ar
    30    12     8   ar
    31    18    21    1
    32    14    16    1
    33    14    17    1
@<TRIPOS>MOLECULE
*****
 32 33 0 0 0
SMALL
GASTEIGER

@<TRIPOS>ATOM
      1 O         140.9372  144.8313  162.8212 O.3     1  UNL1       -0.4102
      2 C         141.8712  144.1434  163.7722 C.ar    1  UNL1        0.1515
      3 C         143.3528  144.3356  163.6391 C.ar    1  UNL1        0.0378
      4 C         144.2868  143.6477  164.5901 C.ar    1  UNL1        0.0046
      5 C         143.7391  142.7675  165.6742 C.ar    1  UNL1        0.0177
      6 C         142.2575  142.5752  165.8073 C.ar    1  UNL1        0.0671
      7 C         141.3235  143.2631  164.8563 C.ar    1  UNL1        0.0551
      8 N         141.7098  141.6949  166.8914 N.ar    1  UNL1       -0.3033
      9 C         142.5028  141.0540  167.9916 C.ar    1  UNL1        0.0803
     10 C         141.5561  140.2640  168.8458 C.ar    1  UNL1        0.0250
     11 C         140.1780  140.4167  168.2735 C.ar    1  UNL1        0.0721
     12 C         140.2730  141.3011  167.0656 C.ar    1  UNL1        0.0846
     13 C         138.9248  139.7943  168.8142 C.2     1  UNL1        0.2443
     14 N         138.5198  140.0389  170.2376 N.am    1  UNL1       -0.3253
     15 O         138.0768  138.9274  167.9315 O.2     1  UNL1       -0.2703
     16 H         139.0764  140.6079  170.8170 H       1  UNL1        0.1453
     17 H         137.6973  139.6304  170.5924 H       1  UNL1        0.1453
     18 N         139.4794  142.7575  162.2518 N.am    1  UNL1       -0.2704
     19 C         139.5973  144.2289  162.5184 C.2     1  UNL1        0.4062
     20 O         138.3751  145.0979  162.4823 O.2     1  UNL1       -0.2260
     21 H         140.2815  142.1872  162.2755 H       1  UNL1        0.1527
     22 C         138.1394  142.1551  161.9490 C.3     1  UNL1        0.0927
     23 C         137.3186  141.5583  163.0535 C.3     1  UNL1        0.0214
     24 C         137.9732  140.6994  164.0945 C.3     1  UNL1        0.0018
     25 C         138.8002  139.5184  163.6807 C.3     1  UNL1        0.0001
     26 C         138.8920  138.3170  164.5743 C.3     1  UNL1        0.0000
     27 C         140.2339  137.7582  164.9442 C.3     1  UNL1        0.0000
     28 C         141.4648  138.6025  164.7955 C.3     1  UNL1        0.0010
     29 C         142.7034  138.2660  165.5718 C.3     1  UNL1        0.0140
     30 C         143.9799  139.0074  165.3057 C.3     1  UNL1        0.0770
     31 C         144.4562  140.2583  162.6209 C.1     1  UNL1       -0.0141
     32 C         144.2181  139.6328  163.9633 C.1     1  UNL1       -0.0779
@<TRIPOS>BOND
     1    31    32    3
     2    32    30    1
     3    30    29    1
     4    29    28    1
     5    28    27    1
     6    27    26    1
     7    26    25    1
     8    25    24    1
     9    24    23    1
    10    23    22    1
    11    22    18    1
    12    18    19   am
    13    19    20    2
    14    19     1    1
    15     1     2    1
    16     2     3   ar
    17     3     4   ar
    18     4     5   ar
    19     5     6   ar
    20     6     8    1
    21     8     9   ar
    22     9    10   ar
    23    10    11   ar
    24    11    13    1
    25    13    14   am
    26    13    15    2
    27    11    12   ar
    28     6     7   ar
    29     7     2   ar
    30    12     8   ar
    31    18    21    1
    32    14    16    1
    33    14    17    1
@<TRIPOS>MOLECULE
*****
 32 33 0 0 0
SMALL
GASTEIGER

@<TRIPOS>ATOM
      1 O         137.2438  141.3977  162.4810 O.3     1  UNL1       -0.4102
      2 C         137.9629  140.5224  163.4643 C.ar    1  UNL1        0.1515
      3 C         138.1889  139.0727  163.1527 C.ar    1  UNL1        0.0378
      4 C         138.9080  138.1975  164.1360 C.ar    1  UNL1        0.0046
      5 C         139.4011  138.7720  165.4309 C.ar    1  UNL1        0.0177
      6 C         139.1751  140.2217  165.7425 C.ar    1  UNL1        0.0671
      7 C         138.4560  141.0969  164.7591 C.ar    1  UNL1        0.0551
      8 N         139.6681  140.7963  167.0374 N.ar    1  UNL1       -0.3033
      9 C         140.3782  142.1066  167.2069 C.ar    1  UNL1        0.0803
     10 C         140.6867  142.2816  168.6644 C.ar    1  UNL1        0.0250
     11 C         140.1671  141.0793  169.3957 C.ar    1  UNL1        0.0721
     12 C         139.5377  140.1614  168.3901 C.ar    1  UNL1        0.0846
     13 C         140.2607  140.8375  170.8731 C.2     1  UNL1        0.2443
     14 N         139.9693  139.4756  171.4301 N.am    1  UNL1       -0.3253
     15 O         140.6457  141.9576  171.7935 O.2     1  UNL1       -0.2703
     16 H         139.7166  138.7405  170.8260 H       1  UNL1        0.1453
     17 H         140.0307  139.3169  172.3998 H       1  UNL1        0.1453
     18 N         138.9414  141.8392  160.5643 N.am    1  UNL1       -0.2704
     19 C         138.0169  142.3574  161.6258 C.2     1  UNL1        0.4062
     20 O         137.8654  143.8355  161.8321 O.2     1  UNL1       -0.2260
     21 H         139.0408  140.8691  160.4289 H       1  UNL1        0.1527
     22 C         139.7144  142.7990  159.7092 C.3     1  UNL1        0.0927
     23 C         141.2140  142.7639  159.7099 C.3     1  UNL1        0.0214
     24 C         141.9524  142.2829  160.9237 C.3     1  UNL1        0.0018
     25 C         143.4470  142.1596  160.8924 C.3     1  UNL1        0.0001
     26 C         144.2968  143.1477  161.6352 C.3     1  UNL1        0.0000
     27 C         143.9018  143.5903  163.0129 C.3     1  UNL1        0.0000
     28 C         143.5755  145.0310  163.2731 C.3     1  UNL1        0.0010
     29 C         142.2481  145.4046  163.8633 C.3     1  UNL1        0.0140
     30 C         141.0523  144.5285  163.6346 C.3     1  UNL1        0.0770
     31 C         138.6208  144.8269  165.3664 C.1     1  UNL1       -0.0141
     32 C         139.8366  144.6777  164.5005 C.1     1  UNL1       -0.0779
@<TRIPOS>BOND
     1    31    32    3
     2    32    30    1
     3    30    29    1
     4    29    28    1
     5    28    27    1
     6    27    26    1
     7    26    25    1
     8    25    24    1
     9    24    23    1
    10    23    22    1
    11    22    18    1
    12    18    19   am
    13    19    20    2
    14    19     1    1
    15     1     2    1
    16     2     3   ar
    17     3     4   ar
    18     4     5   ar
    19     5     6   ar
    20     6     8    1
    21     8     9   ar
    22     9    10   ar
    23    10    11   ar
    24    11    13    1
    25    13    14   am
    26    13    15    2
    27    11    12   ar
    28     6     7   ar
    29     7     2   ar
    30    12     8   ar
    31    18    21    1
    32    14    16    1
    33    14    17    1
@<TRIPOS>MOLECULE
*****
 32 33 0 0 0
SMALL
GASTEIGER

@<TRIPOS>ATOM
      1 O         144.4784  139.1643  163.5419 O.3     1  UNL1       -0.4102
      2 C         144.2223  140.3902  164.3676 C.ar    1  UNL1        0.1515
      3 C         144.9181  141.6768  164.0357 C.ar    1  UNL1        0.0378
      4 C         144.6621  142.9027  164.8613 C.ar    1  UNL1        0.0046
      5 C         143.7102  142.8419  166.0189 C.ar    1  UNL1        0.0177
      6 C         143.0143  141.5552  166.3509 C.ar    1  UNL1        0.0671
      7 C         143.2704  140.3293  165.5252 C.ar    1  UNL1        0.0551
      8 N         142.0624  141.4943  167.5086 N.ar    1  UNL1       -0.3033
      9 C         141.1531  140.3492  167.8431 C.ar    1  UNL1        0.0803
     10 C         140.3813  140.7149  169.0762 C.ar    1  UNL1        0.0250
     11 C         140.8136  142.0862  169.5038 C.ar    1  UNL1        0.0721
     12 C         141.8525  142.5679  168.5349 C.ar    1  UNL1        0.0846
     13 C         140.2976  142.8430  170.6916 C.2     1  UNL1        0.2443
     14 N         139.7946  144.2464  170.5262 N.am    1  UNL1       -0.3253
     15 O         140.2845  142.1963  172.0450 O.2     1  UNL1       -0.2703
     16 H         139.8031  144.6708  169.6379 H       1  UNL1        0.1453
     17 H         139.4559  144.7431  171.3058 H       1  UNL1        0.1453
     18 N         142.0685  138.1960  163.6105 N.am    1  UNL1       -0.2704
     19 C         143.3384  138.4679  162.8599 C.2     1  UNL1        0.4062
     20 O         143.4682  138.0432  161.4270 O.2     1  UNL1       -0.2260
     21 H         141.9833  138.4747  164.5509 H       1  UNL1        0.1527
     22 C         140.9284  137.4995  162.9284 C.3     1  UNL1        0.0927
     23 C         139.5596  137.5247  163.5412 C.3     1  UNL1        0.0214
     24 C         139.3545  138.1401  164.8937 C.3     1  UNL1        0.0018
     25 C         138.3845  139.2716  165.0636 C.3     1  UNL1        0.0001
     26 C         138.0980  140.1927  163.9148 C.3     1  UNL1        0.0000
     27 C         138.6701  141.5792  163.9046 C.3     1  UNL1        0.0000
     28 C         139.6587  141.9904  164.9551 C.3     1  UNL1        0.0010
     29 C         139.5728  143.3546  165.5728 C.3     1  UNL1        0.0140
     30 C         139.6876  144.5768  164.7108 C.3     1  UNL1        0.0770
     31 C         142.2703  145.1892  163.3127 C.1     1  UNL1       -0.0141
     32 C         140.9790  144.8830  164.0118 C.1     1  UNL1       -0.0779
@<TRIPOS>BOND
     1    31    32    3
     2    32    30    1
     3    30    29    1
     4    29    28    1
     5    28    27    1
     6    27    26    1
     7    26    25    1
     8    25    24    1
     9    24    23    1
    10    23    22    1
    11    22    18    1
    12    18    19   am
    13    19    20    2
    14    19     1    1
    15     1     2    1
    16     2     3   ar
    17     3     4   ar
    18     4     5   ar
    19     5     6   ar
    20     6     8    1
    21     8     9   ar
    22     9    10   ar
    23    10    11   ar
    24    11    13    1
    25    13    14   am
    26    13    15    2
    27    11    12   ar
    28     6     7   ar
    29     7     2   ar
    30    12     8   ar
    31    18    21    1
    32    14    16    1
    33    14    17    1
@<TRIPOS>MOLECULE
*****
 32 33 0 0 0
SMALL
GASTEIGER

@<TRIPOS>ATOM
      1 O         141.1132  142.8575  162.0802 O.3     1  UNL1       -0.4102
      2 C         140.5761  143.2380  163.4281 C.ar    1  UNL1        0.1515
      3 C         139.6399  144.4023  163.5611 C.ar    1  UNL1        0.0378
      4 C         139.1029  144.7828  164.9090 C.ar    1  UNL1        0.0046
      5 C         139.5020  143.9988  166.1239 C.ar    1  UNL1        0.0177
      6 C         140.4382  142.8345  165.9910 C.ar    1  UNL1        0.0671
      7 C         140.9752  142.4540  164.6430 C.ar    1  UNL1        0.0551
      8 N         140.8374  142.0504  167.2059 N.ar    1  UNL1       -0.3033
      9 C         141.9872  141.0915  167.2979 C.ar    1  UNL1        0.0803
     10 C         142.0173  140.5361  168.6909 C.ar    1  UNL1        0.0250
     11 C         140.8861  141.1518  169.4599 C.ar    1  UNL1        0.0721
     12 C         140.1569  142.0877  168.5421 C.ar    1  UNL1        0.0846
     13 C         140.5442  140.8795  170.8948 C.2     1  UNL1        0.2443
     14 N         140.0082  139.5373  171.2964 N.am    1  UNL1       -0.3253
     15 O         140.7382  141.9493  171.9282 O.2     1  UNL1       -0.2703
     16 H         139.8808  138.8351  170.6182 H       1  UNL1        0.1453
     17 H         139.7838  139.3585  172.2382 H       1  UNL1        0.1453
     18 N         143.7007  142.8793  162.3126 N.am    1  UNL1       -0.2704
     19 C         142.4333  142.1539  161.9702 C.2     1  UNL1        0.4062
     20 O         142.4859  140.7247  161.5177 O.2     1  UNL1       -0.2260
     21 H         143.6662  143.8173  162.6095 H       1  UNL1        0.1527
     22 C         145.0209  142.1756  162.2025 C.3     1  UNL1        0.0927
     23 C         145.6405  141.5494  163.4165 C.3     1  UNL1        0.0214
     24 C         144.7705  140.9052  164.4549 C.3     1  UNL1        0.0018
     25 C         144.8470  139.4247  164.6839 C.3     1  UNL1        0.0001
     26 C         143.6435  138.6795  165.1802 C.3     1  UNL1        0.0000
     27 C         142.3531  138.7463  164.4184 C.3     1  UNL1        0.0000
     28 C         141.4779  137.5323  164.3175 C.3     1  UNL1        0.0010
     29 C         140.1913  137.5970  163.5491 C.3     1  UNL1        0.0140
     30 C         138.8808  137.5912  164.2788 C.3     1  UNL1        0.0770
     31 C         138.5589  139.1901  166.7967 C.1     1  UNL1       -0.0141
     32 C         138.7198  138.3906  165.5377 C.1     1  UNL1       -0.0779
@<TRIPOS>BOND
     1    31    32    3
     2    32    30    1
     3    30    29    1
     4    29    28    1
     5    28    27    1
     6    27    26    1
     7    26    25    1
     8    25    24    1
     9    24    23    1
    10    23    22    1
    11    22    18    1
    12    18    19   am
    13    19    20    2
    14    19     1    1
    15     1     2    1
    16     2     3   ar
    17     3     4   ar
    18     4     5   ar
    19     5     6   ar
    20     6     8    1
    21     8     9   ar
    22     9    10   ar
    23    10    11   ar
    24    11    13    1
    25    13    14   am
    26    13    15    2
    27    11    12   ar
    28     6     7   ar
    29     7     2   ar
    30    12     8   ar
    31    18    21    1
    32    14    16    1
    33    14    17    1
