@<TRIPOS>MOLECULE
*****
 33 37 0 0 0
SMALL
GASTEIGER

@<TRIPOS>ATOM
      1 O         137.8709  139.1219  168.7793 O.2     1  UNL1       -0.2699
      2 C         139.0833  139.9003  168.3619 C.2     1  UNL1        0.2491
      3 N         139.3514  140.1478  166.9069 N.am    1  UNL1       -0.2761
      4 C         138.4071  139.6170  165.8694 C.3     1  UNL1        0.0937
      5 C         138.6752  139.8645  164.4144 C.3     1  UNL1        0.0217
      6 C         139.8876  140.6429  163.9970 C.3     1  UNL1        0.0060
      7 C         138.9432  140.1121  162.9594 C.3     1  UNL1        0.0175
      8 C         139.2113  140.3596  161.5045 C.3     1  UNL1        0.0724
      9 N         140.4237  141.1380  161.0871 N.3     1  UNL1       -0.2689
     10 C         141.3681  141.6688  162.1246 C.3     1  UNL1        0.0724
     11 C         141.1000  141.4213  163.5796 C.3     1  UNL1        0.0175
     12 C         140.8319  141.1737  165.0345 C.3     1  UNL1        0.0217
     13 C         140.5638  140.9262  166.4895 C.3     1  UNL1        0.0937
     14 C         140.0276  140.4311  169.3994 C.ar    1  UNL1        0.0567
     15 C         139.7203  141.7188  170.1047 C.ar    1  UNL1        0.0252
     16 C         140.6647  142.2496  171.1422 C.ar    1  UNL1        0.0990
     17 N         141.9164  141.4927  171.4744 N.ar    1  UNL1       -0.2423
     18 C         142.2237  140.2050  170.7691 C.ar    1  UNL1        0.0990
     19 C         141.2794  139.6742  169.7316 C.ar    1  UNL1        0.0252
     20 C         140.6918  141.3855  159.6321 C.3     1  UNL1        0.1022
     21 C         140.9975  142.7730  159.1513 C.ar    1  UNL1        0.0284
     22 C         142.2056  143.0219  158.2978 C.ar    1  UNL1        0.0001
     23 C         142.5113  144.4094  157.8169 C.ar    1  UNL1       -0.0001
     24 C         141.6088  145.5482  158.1896 C.ar    1  UNL1        0.0031
     25 C         140.4007  145.2994  159.0431 C.ar    1  UNL1        0.0372
     26 C         140.0951  143.9117  159.5240 C.ar    1  UNL1        0.1426
     27 O         138.8869  143.6629  160.3775 O.3     1  UNL1       -0.4538
     28 C         138.9208  143.9941  161.8401 C.ar    1  UNL1        0.1453
     29 C         137.8021  143.5510  162.7356 C.ar    1  UNL1        0.0375
     30 C         137.8360  143.8822  164.1982 C.ar    1  UNL1        0.0031
     31 C         138.9887  144.6566  164.7652 C.ar    1  UNL1        0.0002
     32 C         140.1075  145.0998  163.8697 C.ar    1  UNL1        0.0031
     33 C         140.0736  144.7685  162.4072 C.ar    1  UNL1        0.0375
@<TRIPOS>BOND
     1     1     2    2
     2     2    14    1
     3    14    15   ar
     4    15    16   ar
     5    16    17   ar
     6    17    18   ar
     7    18    19   ar
     8     2     3   am
     9     3     4    1
    10     4     5    1
    11     5     6    1
    12     6     7    1
    13     7     8    1
    14     8     9    1
    15     9    20    1
    16    20    21    1
    17    21    22   ar
    18    22    23   ar
    19    23    24   ar
    20    24    25   ar
    21    25    26   ar
    22    26    27    1
    23    27    28    1
    24    28    29   ar
    25    29    30   ar
    26    30    31   ar
    27    31    32   ar
    28    32    33   ar
    29     9    10    1
    30    10    11    1
    31     6    12    1
    32    12    13    1
    33    19    14   ar
    34    13     3    1
    35    11     6    1
    36    26    21   ar
    37    33    28   ar
@<TRIPOS>MOLECULE
*****
 33 37 0 0 0
SMALL
GASTEIGER

@<TRIPOS>ATOM
      1 O         143.3634  138.0336  168.9489 O.2     1  UNL1       -0.2699
      2 C         142.5928  139.2485  168.5243 C.2     1  UNL1        0.2491
      3 N         142.4327  139.5635  167.0665 N.am    1  UNL1       -0.2761
      4 C         143.0432  138.6637  166.0333 C.3     1  UNL1        0.0937
      5 C         142.8831  138.9787  164.5755 C.3     1  UNL1        0.0217
      6 C         142.1124  140.1935  164.1510 C.3     1  UNL1        0.0060
      7 C         142.7230  139.2937  163.1177 C.3     1  UNL1        0.0175
      8 C         142.5629  139.6087  161.6600 C.3     1  UNL1        0.0724
      9 N         141.7922  140.8236  161.2354 N.3     1  UNL1       -0.2689
     10 C         141.1817  141.7234  162.2686 C.3     1  UNL1        0.0724
     11 C         141.3418  141.4084  163.7264 C.3     1  UNL1        0.0175
     12 C         141.5019  141.0934  165.1842 C.3     1  UNL1        0.0217
     13 C         141.6620  140.7783  166.6419 C.3     1  UNL1        0.0937
     14 C         141.9822  140.1483  169.5575 C.ar    1  UNL1        0.0567
     15 C         142.7516  141.3281  170.0735 C.ar    1  UNL1        0.0252
     16 C         142.1410  142.2279  171.1067 C.ar    1  UNL1        0.0990
     17 N         140.7611  141.9480  171.6239 N.ar    1  UNL1       -0.2423
     18 C         139.9918  140.7682  171.1080 C.ar    1  UNL1        0.0990
     19 C         140.6023  139.8684  170.0748 C.ar    1  UNL1        0.0252
     20 C         141.6321  141.1386  159.7776 C.3     1  UNL1        0.1022
     21 C         142.8425  141.2715  158.9016 C.ar    1  UNL1        0.0284
     22 C         143.1054  140.2586  157.8270 C.ar    1  UNL1        0.0001
     23 C         144.3158  140.3915  156.9510 C.ar    1  UNL1       -0.0001
     24 C         145.2633  141.5373  157.1498 C.ar    1  UNL1        0.0031
     25 C         145.0004  142.5502  158.2245 C.ar    1  UNL1        0.0372
     26 C         143.7899  142.4172  159.1004 C.ar    1  UNL1        0.1426
     27 O         143.5270  143.4301  160.1751 O.3     1  UNL1       -0.4538
     28 C         144.0548  143.2069  161.5614 C.ar    1  UNL1        0.1453
     29 C         143.6449  144.1227  162.6764 C.ar    1  UNL1        0.0375
     30 C         144.1727  143.8995  164.0626 C.ar    1  UNL1        0.0031
     31 C         145.1103  142.7605  164.3338 C.ar    1  UNL1        0.0002
     32 C         145.5201  141.8446  163.2188 C.ar    1  UNL1        0.0031
     33 C         144.9923  142.0679  161.8326 C.ar    1  UNL1        0.0375
@<TRIPOS>BOND
     1     1     2    2
     2     2    14    1
     3    14    15   ar
     4    15    16   ar
     5    16    17   ar
     6    17    18   ar
     7    18    19   ar
     8     2     3   am
     9     3     4    1
    10     4     5    1
    11     5     6    1
    12     6     7    1
    13     7     8    1
    14     8     9    1
    15     9    20    1
    16    20    21    1
    17    21    22   ar
    18    22    23   ar
    19    23    24   ar
    20    24    25   ar
    21    25    26   ar
    22    26    27    1
    23    27    28    1
    24    28    29   ar
    25    29    30   ar
    26    30    31   ar
    27    31    32   ar
    28    32    33   ar
    29     9    10    1
    30    10    11    1
    31     6    12    1
    32    12    13    1
    33    19    14   ar
    34    13     3    1
    35    11     6    1
    36    26    21   ar
    37    33    28   ar
@<TRIPOS>MOLECULE
*****
 33 37 0 0 0
SMALL
GASTEIGER

@<TRIPOS>ATOM
      1 O         138.6204  139.8901  169.9715 O.2     1  UNL1       -0.2699
      2 C         139.6070  140.5165  169.0312 C.2     1  UNL1        0.2491
      3 N         139.6185  140.1221  167.5839 N.am    1  UNL1       -0.2761
      4 C         138.6433  139.1013  167.0771 C.3     1  UNL1        0.0937
      5 C         138.6548  138.7069  165.6299 C.3     1  UNL1        0.0217
      6 C         139.6414  139.3334  164.6896 C.3     1  UNL1        0.0060
      7 C         138.6662  138.3125  164.1827 C.3     1  UNL1        0.0175
      8 C         138.6777  137.9181  162.7356 C.3     1  UNL1        0.0724
      9 N         139.6643  138.5445  161.7953 N.3     1  UNL1       -0.2689
     10 C         140.6394  139.5654  162.3021 C.3     1  UNL1        0.0724
     11 C         140.6280  139.9598  163.7493 C.3     1  UNL1        0.0175
     12 C         140.6165  140.3542  165.1965 C.3     1  UNL1        0.0217
     13 C         140.6051  140.7486  166.6436 C.3     1  UNL1        0.0937
     14 C         140.5822  141.5374  169.5380 C.ar    1  UNL1        0.0567
     15 C         140.1592  142.9686  169.6889 C.ar    1  UNL1        0.0252
     16 C         141.1344  143.9894  170.1957 C.ar    1  UNL1        0.0990
     17 N         142.5325  143.5791  170.5517 N.ar    1  UNL1       -0.2423
     18 C         142.9555  142.1479  170.4009 C.ar    1  UNL1        0.0990
     19 C         141.9804  141.1271  169.8941 C.ar    1  UNL1        0.0252
     20 C         139.6757  138.1501  160.3480 C.3     1  UNL1        0.1022
     21 C         140.0702  139.1495  159.3014 C.ar    1  UNL1        0.0284
     22 C         141.2734  138.8996  158.4413 C.ar    1  UNL1        0.0001
     23 C         141.6678  139.8990  157.3946 C.ar    1  UNL1       -0.0001
     24 C         140.8590  141.1485  157.2081 C.ar    1  UNL1        0.0031
     25 C         139.6558  141.3985  158.0682 C.ar    1  UNL1        0.0372
     26 C         139.2614  140.3989  159.1149 C.ar    1  UNL1        0.1426
     27 O         138.0582  140.6489  159.9750 O.3     1  UNL1       -0.4538
     28 C         138.1585  141.5682  161.1561 C.ar    1  UNL1        0.1453
     29 C         137.3750  141.2772  162.4017 C.ar    1  UNL1        0.0375
     30 C         137.4754  142.1964  163.5827 C.ar    1  UNL1        0.0031
     31 C         138.3591  143.4067  163.5181 C.ar    1  UNL1        0.0002
     32 C         139.1425  143.6978  162.2725 C.ar    1  UNL1        0.0031
     33 C         139.0422  142.7785  161.0915 C.ar    1  UNL1        0.0375
@<TRIPOS>BOND
     1     1     2    2
     2     2    14    1
     3    14    15   ar
     4    15    16   ar
     5    16    17   ar
     6    17    18   ar
     7    18    19   ar
     8     2     3   am
     9     3     4    1
    10     4     5    1
    11     5     6    1
    12     6     7    1
    13     7     8    1
    14     8     9    1
    15     9    20    1
    16    20    21    1
    17    21    22   ar
    18    22    23   ar
    19    23    24   ar
    20    24    25   ar
    21    25    26   ar
    22    26    27    1
    23    27    28    1
    24    28    29   ar
    25    29    30   ar
    26    30    31   ar
    27    31    32   ar
    28    32    33   ar
    29     9    10    1
    30    10    11    1
    31     6    12    1
    32    12    13    1
    33    19    14   ar
    34    13     3    1
    35    11     6    1
    36    26    21   ar
    37    33    28   ar
@<TRIPOS>MOLECULE
*****
 33 37 0 0 0
SMALL
GASTEIGER

@<TRIPOS>ATOM
      1 O         138.6604  139.1868  167.9778 O.2     1  UNL1       -0.2699
      2 C         139.6717  140.2941  167.9467 C.2     1  UNL1        0.2491
      3 N         140.0866  140.8943  166.6361 N.am    1  UNL1       -0.2761
      4 C         139.4903  140.3872  165.3566 C.3     1  UNL1        0.0937
      5 C         139.9052  140.9873  164.0461 C.3     1  UNL1        0.0217
      6 C         140.9165  142.0947  164.0150 C.3     1  UNL1        0.0060
      7 C         140.3201  141.5875  162.7354 C.3     1  UNL1        0.0175
      8 C         140.7351  142.1877  161.4249 C.3     1  UNL1        0.0724
      9 N         141.7464  143.2951  161.3938 N.3     1  UNL1       -0.2689
     10 C         142.3428  143.8023  162.6733 C.3     1  UNL1        0.0724
     11 C         141.9278  143.2021  163.9839 C.3     1  UNL1        0.0175
     12 C         141.5129  142.6019  165.2944 C.3     1  UNL1        0.0217
     13 C         141.0980  142.0017  166.6050 C.3     1  UNL1        0.0937
     14 C         140.2681  140.8013  169.2261 C.ar    1  UNL1        0.0567
     15 C         139.6693  141.9934  169.9120 C.ar    1  UNL1        0.0252
     16 C         140.2658  142.5006  171.1915 C.ar    1  UNL1        0.0990
     17 N         141.4609  141.8156  171.7851 N.ar    1  UNL1       -0.2423
     18 C         142.0597  140.6235  171.0993 C.ar    1  UNL1        0.0990
     19 C         141.4633  140.1164  169.8198 C.ar    1  UNL1        0.0252
     20 C         142.1613  143.8953  160.0832 C.3     1  UNL1        0.1022
     21 C         142.7230  143.0204  159.0020 C.ar    1  UNL1        0.0284
     22 C         141.9387  142.7838  157.7455 C.ar    1  UNL1        0.0001
     23 C         142.5004  141.9089  156.6643 C.ar    1  UNL1       -0.0001
     24 C         143.8466  141.2706  156.8396 C.ar    1  UNL1        0.0031
     25 C         144.6309  141.5073  158.0961 C.ar    1  UNL1        0.0372
     26 C         144.0691  142.3822  159.1773 C.ar    1  UNL1        0.1426
     27 O         144.8534  142.6188  160.4338 O.3     1  UNL1       -0.4538
     28 C         144.7547  141.6485  161.5735 C.ar    1  UNL1        0.1453
     29 C         145.4671  141.9311  162.8629 C.ar    1  UNL1        0.0375
     30 C         145.3684  140.9608  164.0025 C.ar    1  UNL1        0.0031
     31 C         144.5572  139.7080  163.8528 C.ar    1  UNL1        0.0002
     32 C         143.8447  139.4255  162.5634 C.ar    1  UNL1        0.0031
     33 C         143.9435  140.3958  161.4238 C.ar    1  UNL1        0.0375
@<TRIPOS>BOND
     1     1     2    2
     2     2    14    1
     3    14    15   ar
     4    15    16   ar
     5    16    17   ar
     6    17    18   ar
     7    18    19   ar
     8     2     3   am
     9     3     4    1
    10     4     5    1
    11     5     6    1
    12     6     7    1
    13     7     8    1
    14     8     9    1
    15     9    20    1
    16    20    21    1
    17    21    22   ar
    18    22    23   ar
    19    23    24   ar
    20    24    25   ar
    21    25    26   ar
    22    26    27    1
    23    27    28    1
    24    28    29   ar
    25    29    30   ar
    26    30    31   ar
    27    31    32   ar
    28    32    33   ar
    29     9    10    1
    30    10    11    1
    31     6    12    1
    32    12    13    1
    33    19    14   ar
    34    13     3    1
    35    11     6    1
    36    26    21   ar
    37    33    28   ar
@<TRIPOS>MOLECULE
*****
 33 37 0 0 0
SMALL
GASTEIGER

@<TRIPOS>ATOM
      1 O         143.3165  138.7484  167.8606 O.2     1  UNL1       -0.2699
      2 C         142.7218  140.1234  167.7848 C.2     1  UNL1        0.2491
      3 N         142.4392  140.7457  166.4495 N.am    1  UNL1       -0.2761
      4 C         142.7513  139.9930  165.1901 C.3     1  UNL1        0.0937
      5 C         142.4687  140.6154  163.8549 C.3     1  UNL1        0.0217
      6 C         141.8740  141.9904  163.7791 C.3     1  UNL1        0.0060
      7 C         142.1861  141.2377  162.5196 C.3     1  UNL1        0.0175
      8 C         141.9035  141.8600  161.1845 C.3     1  UNL1        0.0724
      9 N         141.3088  143.2350  161.1086 N.3     1  UNL1       -0.2689
     10 C         140.9968  143.9877  162.3680 C.3     1  UNL1        0.0724
     11 C         141.2794  143.3654  163.7033 C.3     1  UNL1        0.0175
     12 C         141.5620  142.7431  165.0385 C.3     1  UNL1        0.0217
     13 C         141.8446  142.1207  166.3737 C.3     1  UNL1        0.0937
     14 C         142.4098  140.8761  169.0442 C.ar    1  UNL1        0.0567
     15 C         141.3047  140.4075  169.9437 C.ar    1  UNL1        0.0252
     16 C         140.9926  141.1602  171.2031 C.ar    1  UNL1        0.0990
     17 N         141.7857  142.3815  171.5630 N.ar    1  UNL1       -0.2423
     18 C         142.8908  142.8501  170.6634 C.ar    1  UNL1        0.0990
     19 C         143.2028  142.0974  169.4041 C.ar    1  UNL1        0.0252
     20 C         141.0263  143.8574  159.7733 C.3     1  UNL1        0.1022
     21 C         140.2801  143.0828  158.7277 C.ar    1  UNL1        0.0284
     22 C         140.9840  142.6355  157.4809 C.ar    1  UNL1        0.0001
     23 C         140.2378  141.8610  156.4353 C.ar    1  UNL1       -0.0001
     24 C         138.7878  141.5337  156.6365 C.ar    1  UNL1        0.0031
     25 C         138.0840  141.9810  157.8833 C.ar    1  UNL1        0.0372
     26 C         138.8302  142.7556  158.9289 C.ar    1  UNL1        0.1426
     27 O         138.1264  143.2029  160.1757 O.3     1  UNL1       -0.4538
     28 C         138.1087  142.3167  161.3859 C.ar    1  UNL1        0.1453
     29 C         137.7143  142.8772  162.7202 C.ar    1  UNL1        0.0375
     30 C         137.6966  141.9911  163.9303 C.ar    1  UNL1        0.0031
     31 C         138.0733  140.5445  163.8062 C.ar    1  UNL1        0.0002
     32 C         138.4677  139.9840  162.4719 C.ar    1  UNL1        0.0031
     33 C         138.4854  140.8701  161.2618 C.ar    1  UNL1        0.0375
@<TRIPOS>BOND
     1     1     2    2
     2     2    14    1
     3    14    15   ar
     4    15    16   ar
     5    16    17   ar
     6    17    18   ar
     7    18    19   ar
     8     2     3   am
     9     3     4    1
    10     4     5    1
    11     5     6    1
    12     6     7    1
    13     7     8    1
    14     8     9    1
    15     9    20    1
    16    20    21    1
    17    21    22   ar
    18    22    23   ar
    19    23    24   ar
    20    24    25   ar
    21    25    26   ar
    22    26    27    1
    23    27    28    1
    24    28    29   ar
    25    29    30   ar
    26    30    31   ar
    27    31    32   ar
    28    32    33   ar
    29     9    10    1
    30    10    11    1
    31     6    12    1
    32    12    13    1
    33    19    14   ar
    34    13     3    1
    35    11     6    1
    36    26    21   ar
    37    33    28   ar
@<TRIPOS>MOLECULE
*****
 33 37 0 0 0
SMALL
GASTEIGER

@<TRIPOS>ATOM
      1 O         143.9767  139.1890  157.9683 O.2     1  UNL1       -0.2699
      2 C         142.6728  139.1455  158.7086 C.2     1  UNL1        0.2491
      3 N         142.6599  139.1876  160.2080 N.am    1  UNL1       -0.2761
      4 C         143.9508  139.2732  160.9670 C.3     1  UNL1        0.0937
      5 C         143.9378  139.3153  162.4663 C.3     1  UNL1        0.0217
      6 C         142.6339  139.2718  163.2066 C.3     1  UNL1        0.0060
      7 C         143.9249  139.3574  163.9658 C.3     1  UNL1        0.0175
      8 C         143.9119  139.3994  165.4651 C.3     1  UNL1        0.0724
      9 N         142.6080  139.3559  166.2053 N.3     1  UNL1       -0.2689
     10 C         141.3171  139.2703  165.4463 C.3     1  UNL1        0.0724
     11 C         141.3301  139.2282  163.9469 C.3     1  UNL1        0.0175
     12 C         141.3430  139.1862  162.4476 C.3     1  UNL1        0.0217
     13 C         141.3560  139.1441  160.9482 C.3     1  UNL1        0.0937
     14 C         141.3819  139.0599  157.9495 C.ar    1  UNL1        0.0567
     15 C         140.9374  137.7492  157.3713 C.ar    1  UNL1        0.0252
     16 C         139.6464  137.6636  156.6122 C.ar    1  UNL1        0.0990
     17 N         138.8001  138.8888  156.4314 N.ar    1  UNL1       -0.2423
     18 C         139.2446  140.1995  157.0096 C.ar    1  UNL1        0.0990
     19 C         140.5355  140.2851  157.7687 C.ar    1  UNL1        0.0252
     20 C         142.5951  139.3980  167.7048 C.3     1  UNL1        0.1022
     21 C         141.7204  140.3847  168.4198 C.ar    1  UNL1        0.0284
     22 C         140.5254  139.9071  169.1904 C.ar    1  UNL1        0.0001
     23 C         139.6507  140.8937  169.9054 C.ar    1  UNL1       -0.0001
     24 C         139.9711  142.3581  169.8500 C.ar    1  UNL1        0.0031
     25 C         141.1661  142.8358  169.0795 C.ar    1  UNL1        0.0372
     26 C         142.0408  141.8490  168.3644 C.ar    1  UNL1        0.1426
     27 O         143.2358  142.3266  167.5938 O.3     1  UNL1       -0.4538
     28 C         143.0995  142.6828  166.1430 C.ar    1  UNL1        0.1453
     29 C         144.3221  142.9719  165.3236 C.ar    1  UNL1        0.0375
     30 C         144.1857  143.3280  163.8729 C.ar    1  UNL1        0.0031
     31 C         142.8266  143.3950  163.2417 C.ar    1  UNL1        0.0002
     32 C         141.6040  143.1059  164.0611 C.ar    1  UNL1        0.0031
     33 C         141.7404  142.7498  165.5118 C.ar    1  UNL1        0.0375
@<TRIPOS>BOND
     1     1     2    2
     2     2    14    1
     3    14    15   ar
     4    15    16   ar
     5    16    17   ar
     6    17    18   ar
     7    18    19   ar
     8     2     3   am
     9     3     4    1
    10     4     5    1
    11     5     6    1
    12     6     7    1
    13     7     8    1
    14     8     9    1
    15     9    20    1
    16    20    21    1
    17    21    22   ar
    18    22    23   ar
    19    23    24   ar
    20    24    25   ar
    21    25    26   ar
    22    26    27    1
    23    27    28    1
    24    28    29   ar
    25    29    30   ar
    26    30    31   ar
    27    31    32   ar
    28    32    33   ar
    29     9    10    1
    30    10    11    1
    31     6    12    1
    32    12    13    1
    33    19    14   ar
    34    13     3    1
    35    11     6    1
    36    26    21   ar
    37    33    28   ar
@<TRIPOS>MOLECULE
*****
 33 37 0 0 0
SMALL
GASTEIGER

@<TRIPOS>ATOM
      1 O         139.5530  138.1616  157.9904 O.2     1  UNL1       -0.2699
      2 C         140.9659  138.2186  158.4908 C.2     1  UNL1        0.2491
      3 N         141.2364  138.4169  159.9529 N.am    1  UNL1       -0.2761
      4 C         140.0939  138.5581  160.9145 C.3     1  UNL1        0.0937
      5 C         140.3644  138.7564  162.3765 C.3     1  UNL1        0.0217
      6 C         141.7773  138.8134  162.8769 C.3     1  UNL1        0.0060
      7 C         140.6348  138.9547  163.8386 C.3     1  UNL1        0.0175
      8 C         140.9053  139.1530  165.3006 C.3     1  UNL1        0.0724
      9 N         142.3183  139.2100  165.8009 N.3     1  UNL1       -0.2689
     10 C         143.4607  139.0687  164.8393 C.3     1  UNL1        0.0724
     11 C         143.1903  138.8704  163.3772 C.3     1  UNL1        0.0175
     12 C         142.9198  138.6722  161.9152 C.3     1  UNL1        0.0217
     13 C         142.6493  138.4739  160.4532 C.3     1  UNL1        0.0937
     14 C         142.1084  138.0773  157.5292 C.ar    1  UNL1        0.0567
     15 C         142.5632  136.7139  157.1000 C.ar    1  UNL1        0.0252
     16 C         143.7057  136.5726  156.1383 C.ar    1  UNL1        0.0990
     17 N         144.3933  137.7948  155.6058 N.ar    1  UNL1       -0.2423
     18 C         143.9385  139.1582  156.0350 C.ar    1  UNL1        0.0990
     19 C         142.7960  139.2995  156.9967 C.ar    1  UNL1        0.0252
     20 C         142.5887  139.4083  167.2630 C.3     1  UNL1        0.1022
     21 C         141.7611  140.3774  168.0542 C.ar    1  UNL1        0.0284
     22 C         140.5811  139.8885  168.8407 C.ar    1  UNL1        0.0001
     23 C         139.7535  140.8575  169.6318 C.ar    1  UNL1       -0.0001
     24 C         140.1059  142.3156  169.6364 C.ar    1  UNL1        0.0031
     25 C         141.2859  142.8045  168.8499 C.ar    1  UNL1        0.0372
     26 C         142.1135  141.8354  168.0588 C.ar    1  UNL1        0.1426
     27 O         143.2935  142.3243  167.2722 O.3     1  UNL1       -0.4538
     28 C         143.1713  142.5402  165.7928 C.ar    1  UNL1        0.1453
     29 C         141.8169  142.6926  165.1665 C.ar    1  UNL1        0.0375
     30 C         141.6948  142.9085  163.6871 C.ar    1  UNL1        0.0031
     31 C         142.9271  142.9720  162.8342 C.ar    1  UNL1        0.0002
     32 C         144.2815  142.8196  163.4606 C.ar    1  UNL1        0.0031
     33 C         144.4036  142.6037  164.9399 C.ar    1  UNL1        0.0375
@<TRIPOS>BOND
     1     1     2    2
     2     2    14    1
     3    14    15   ar
     4    15    16   ar
     5    16    17   ar
     6    17    18   ar
     7    18    19   ar
     8     2     3   am
     9     3     4    1
    10     4     5    1
    11     5     6    1
    12     6     7    1
    13     7     8    1
    14     8     9    1
    15     9    20    1
    16    20    21    1
    17    21    22   ar
    18    22    23   ar
    19    23    24   ar
    20    24    25   ar
    21    25    26   ar
    22    26    27    1
    23    27    28    1
    24    28    29   ar
    25    29    30   ar
    26    30    31   ar
    27    31    32   ar
    28    32    33   ar
    29     9    10    1
    30    10    11    1
    31     6    12    1
    32    12    13    1
    33    19    14   ar
    34    13     3    1
    35    11     6    1
    36    26    21   ar
    37    33    28   ar
@<TRIPOS>MOLECULE
*****
 33 37 0 0 0
SMALL
GASTEIGER

@<TRIPOS>ATOM
      1 O         138.3485  139.1136  168.3375 O.2     1  UNL1       -0.2699
      2 C         139.4103  140.1594  168.1680 C.2     1  UNL1        0.2491
      3 N         139.7823  140.6349  166.7948 N.am    1  UNL1       -0.2761
      4 C         139.0924  140.0646  165.5911 C.3     1  UNL1        0.0937
      5 C         139.4644  140.5401  164.2180 C.3     1  UNL1        0.0217
      6 C         140.5262  141.5859  164.0485 C.3     1  UNL1        0.0060
      7 C         139.8363  141.0156  162.8448 C.3     1  UNL1        0.0175
      8 C         140.2083  141.4911  161.4717 C.3     1  UNL1        0.0724
      9 N         141.2701  142.5369  161.3022 N.3     1  UNL1       -0.2689
     10 C         141.9600  143.1073  162.5059 C.3     1  UNL1        0.0724
     11 C         141.5880  142.6318  163.8791 C.3     1  UNL1        0.0175
     12 C         141.2161  142.1563  165.2522 C.3     1  UNL1        0.0217
     13 C         140.8441  141.6808  166.6253 C.3     1  UNL1        0.0937
     14 C         140.1001  140.7298  169.3716 C.ar    1  UNL1        0.0567
     15 C         139.5661  141.9700  170.0247 C.ar    1  UNL1        0.0252
     16 C         140.2560  142.5404  171.2284 C.ar    1  UNL1        0.0990
     17 N         141.4799  141.8704  171.7789 N.ar    1  UNL1       -0.2423
     18 C         142.0140  140.6302  171.1258 C.ar    1  UNL1        0.0990
     19 C         141.3242  140.0598  169.9222 C.ar    1  UNL1        0.0252
     20 C         141.6421  143.0124  159.9290 C.3     1  UNL1        0.1022
     21 C         142.2425  142.0565  158.9414 C.ar    1  UNL1        0.0284
     22 C         141.4117  141.5259  157.8108 C.ar    1  UNL1        0.0001
     23 C         142.0121  140.5699  156.8231 C.ar    1  UNL1       -0.0001
     24 C         143.4435  140.1444  156.9660 C.ar    1  UNL1        0.0031
     25 C         144.2743  140.6750  158.0966 C.ar    1  UNL1        0.0372
     26 C         143.6738  141.6311  159.0843 C.ar    1  UNL1        0.1426
     27 O         144.5046  142.1616  160.2148 O.3     1  UNL1       -0.4538
     28 C         144.6002  141.3939  161.5000 C.ar    1  UNL1        0.1453
     29 C         143.8845  140.0838  161.6460 C.ar    1  UNL1        0.0375
     30 C         143.9801  139.3161  162.9311 C.ar    1  UNL1        0.0031
     31 C         144.7914  139.8586  164.0701 C.ar    1  UNL1        0.0002
     32 C         145.5072  141.1686  163.9241 C.ar    1  UNL1        0.0031
     33 C         145.4116  141.9363  162.6391 C.ar    1  UNL1        0.0375
@<TRIPOS>BOND
     1     1     2    2
     2     2    14    1
     3    14    15   ar
     4    15    16   ar
     5    16    17   ar
     6    17    18   ar
     7    18    19   ar
     8     2     3   am
     9     3     4    1
    10     4     5    1
    11     5     6    1
    12     6     7    1
    13     7     8    1
    14     8     9    1
    15     9    20    1
    16    20    21    1
    17    21    22   ar
    18    22    23   ar
    19    23    24   ar
    20    24    25   ar
    21    25    26   ar
    22    26    27    1
    23    27    28    1
    24    28    29   ar
    25    29    30   ar
    26    30    31   ar
    27    31    32   ar
    28    32    33   ar
    29     9    10    1
    30    10    11    1
    31     6    12    1
    32    12    13    1
    33    19    14   ar
    34    13     3    1
    35    11     6    1
    36    26    21   ar
    37    33    28   ar
@<TRIPOS>MOLECULE
*****
 33 37 0 0 0
SMALL
GASTEIGER

@<TRIPOS>ATOM
      1 O         138.2592  139.7686  158.2169 O.2     1  UNL1       -0.2699
      2 C         139.5251  139.4763  158.9667 C.2     1  UNL1        0.2491
      3 N         139.5425  139.5463  160.4651 N.am    1  UNL1       -0.2761
      4 C         138.2940  139.9085  161.2135 C.3     1  UNL1        0.0937
      5 C         138.3115  139.9785  162.7117 C.3     1  UNL1        0.0217
      6 C         139.5773  139.6862  163.4615 C.3     1  UNL1        0.0060
      7 C         138.3288  140.0485  164.2100 C.3     1  UNL1        0.0175
      8 C         138.3463  140.1185  165.7083 C.3     1  UNL1        0.0724
      9 N         139.6121  139.8262  166.4581 N.3     1  UNL1       -0.2689
     10 C         140.8605  139.4639  165.7097 C.3     1  UNL1        0.0724
     11 C         140.8431  139.3939  164.2113 C.3     1  UNL1        0.0175
     12 C         140.8257  139.3240  162.7131 C.3     1  UNL1        0.0217
     13 C         140.8083  139.2540  161.2149 C.3     1  UNL1        0.0937
     14 C         140.7735  139.1140  158.2183 C.ar    1  UNL1        0.0567
     15 C         140.9110  137.7528  157.6034 C.ar    1  UNL1        0.0252
     16 C         142.1595  137.3906  156.8550 C.ar    1  UNL1        0.0990
     17 N         143.2704  138.3896  156.7214 N.ar    1  UNL1       -0.2423
     18 C         143.1329  139.7508  157.3363 C.ar    1  UNL1        0.0990
     19 C         141.8845  140.1131  158.0847 C.ar    1  UNL1        0.0252
     20 C         139.6295  139.8962  167.9564 C.3     1  UNL1        0.1022
     21 C         140.8183  140.4727  168.6665 C.ar    1  UNL1        0.0284
     22 C         141.6918  139.5884  169.5062 C.ar    1  UNL1        0.0001
     23 C         142.8806  140.1649  170.2164 C.ar    1  UNL1       -0.0001
     24 C         143.1959  141.6257  170.0869 C.ar    1  UNL1        0.0031
     25 C         142.3224  142.5100  169.2472 C.ar    1  UNL1        0.0372
     26 C         141.1335  141.9334  168.5370 C.ar    1  UNL1        0.1426
     27 O         140.2600  142.8176  167.6973 O.3     1  UNL1       -0.4538
     28 C         140.5560  142.9962  166.2376 C.ar    1  UNL1        0.1453
     29 C         139.4807  143.4736  165.3073 C.ar    1  UNL1        0.0375
     30 C         139.7767  143.6522  163.8477 C.ar    1  UNL1        0.0031
     31 C         141.1481  143.3533  163.3185 C.ar    1  UNL1        0.0002
     32 C         142.2234  142.8758  164.2489 C.ar    1  UNL1        0.0031
     33 C         141.9274  142.6973  165.7084 C.ar    1  UNL1        0.0375
@<TRIPOS>BOND
     1     1     2    2
     2     2    14    1
     3    14    15   ar
     4    15    16   ar
     5    16    17   ar
     6    17    18   ar
     7    18    19   ar
     8     2     3   am
     9     3     4    1
    10     4     5    1
    11     5     6    1
    12     6     7    1
    13     7     8    1
    14     8     9    1
    15     9    20    1
    16    20    21    1
    17    21    22   ar
    18    22    23   ar
    19    23    24   ar
    20    24    25   ar
    21    25    26   ar
    22    26    27    1
    23    27    28    1
    24    28    29   ar
    25    29    30   ar
    26    30    31   ar
    27    31    32   ar
    28    32    33   ar
    29     9    10    1
    30    10    11    1
    31     6    12    1
    32    12    13    1
    33    19    14   ar
    34    13     3    1
    35    11     6    1
    36    26    21   ar
    37    33    28   ar
