@<TRIPOS>MOLECULE
*****
 32 36 0 0 0
SMALL
GASTEIGER

@<TRIPOS>ATOM
      1 C         142.2583  138.0171  160.0294 C.ar    1  UNL1        0.1074
      2 C         141.3502  138.6861  159.0407 C.ar    1  UNL1        0.0588
      3 S         141.6621  138.1376  157.6799 S.2     1  UNL1       -0.0508
      4 C         142.7630  137.1295  157.8277 C.ar    1  UNL1        0.1646
      5 N         143.1314  137.0550  159.2797 N.ar    1  UNL1       -0.2224
      6 C         141.3486  137.8072  163.8867 C.ar    1  UNL1        0.2416
      7 N         141.3189  137.5580  162.4079 N.ar    1  UNL1       -0.2089
      8 C         142.2880  138.2663  161.5083 C.ar    1  UNL1        0.1026
      9 C         143.2868  139.2238  162.0876 C.ar    1  UNL1        0.0224
     10 C         143.3166  139.4730  163.5665 C.ar    1  UNL1        0.0239
     11 C         142.3474  138.7648  164.4660 C.ar    1  UNL1        0.1189
     12 N         142.3771  139.0140  165.9449 N.ar    1  UNL1       -0.2826
     13 C         143.3798  138.4589  166.9125 C.ar    1  UNL1        0.1826
     14 N         143.0318  138.9639  168.2814 N.ar    1  UNL1       -0.2280
     15 C         141.8140  139.8311  168.1597 C.ar    1  UNL1        0.0786
     16 C         141.1221  140.5425  169.2846 C.3     1  UNL1        0.0538
     17 C         141.4094  139.8621  166.7157 C.ar    1  UNL1        0.0963
     18 C         139.0120  137.6716  165.0144 C.3     1  UNL1        0.2543
     19 O         140.3795  137.0990  164.7863 O.3     1  UNL1       -0.4551
     20 N         143.3860  136.3353  156.7181 N.pl3   1  UNL1       -0.2786
     21 H         144.1146  136.7249  156.1828 H       1  UNL1        0.1555
     22 C         142.8989  134.9473  156.4241 C.ar    1  UNL1        0.1276
     23 C         143.5055  133.6736  156.9338 C.ar    1  UNL1        0.0244
     24 C         142.7012  132.5285  156.3935 C.ar    1  UNL1        0.0773
     25 N         141.5975  133.0945  155.5500 N.ar    1  UNL1       -0.1728
     26 N         141.7197  134.5895  155.5688 N.ar    1  UNL1       -0.2354
     27 C         143.3077  131.2548  156.9032 C.3     1  UNL1        0.0477
     28 C         144.4869  131.6127  157.7584 C.3     1  UNL1        0.0112
     29 C         144.6091  133.1076  157.7773 C.3     1  UNL1        0.0308
     30 C         140.8207  135.5566  154.8574 C.3     1  UNL1        0.1668
     31 C         141.3015  136.2579  153.6216 C.3     1  UNL1        0.2195
     32 F         141.9144  135.4695  152.5024 F       1  UNL1       -0.2321
@<TRIPOS>BOND
     1    18    19    1
     2    19     6    1
     3     6     7   ar
     4     7     8   ar
     5     8     1    1
     6     1     2   ar
     7     2     3   ar
     8     3     4   ar
     9     4    20    1
    10    20    22    1
    11    22    23   ar
    12    23    24   ar
    13    24    25   ar
    14    25    26   ar
    15    26    30    1
    16    30    31    1
    17    31    32    1
    18    24    27    1
    19    27    28    1
    20    28    29    1
    21     4     5   ar
    22     8     9   ar
    23     9    10   ar
    24    10    11   ar
    25    11    12    1
    26    12    13   ar
    27    13    14   ar
    28    14    15   ar
    29    15    16    1
    30    15    17   ar
    31    11     6   ar
    32    17    12   ar
    33     5     1   ar
    34    26    22   ar
    35    29    23    1
    36    20    21    1
@<TRIPOS>MOLECULE
*****
 32 36 0 0 0
SMALL
GASTEIGER

@<TRIPOS>ATOM
      1 C         141.3233  138.3504  159.8759 C.ar    1  UNL1        0.1074
      2 C         140.6230  138.8851  158.6620 C.ar    1  UNL1        0.0588
      3 S         141.3968  138.4520  157.4522 S.2     1  UNL1       -0.0508
      4 C         142.5752  137.6496  157.9184 C.ar    1  UNL1        0.1646
      5 N         142.5298  137.5869  159.4163 N.ar    1  UNL1       -0.2224
      6 C         139.5251  139.8566  163.0772 C.ar    1  UNL1        0.2416
      7 N         139.9558  139.6619  161.6536 N.ar    1  UNL1       -0.2089
      8 C         140.8926  138.5452  161.2995 C.ar    1  UNL1        0.1026
      9 C         141.3988  137.6232  162.3690 C.ar    1  UNL1        0.0224
     10 C         140.9682  137.8179  163.7926 C.ar    1  UNL1        0.0239
     11 C         140.0313  138.9346  164.1467 C.ar    1  UNL1        0.1189
     12 N         139.6007  139.1294  165.5703 N.ar    1  UNL1       -0.2826
     13 C         138.3162  138.6474  166.1766 C.ar    1  UNL1        0.1826
     14 N         138.3005  139.0604  167.6185 N.ar    1  UNL1       -0.2280
     15 C         139.5754  139.7977  167.9034 C.ar    1  UNL1        0.0786
     16 C         139.9764  140.3886  169.2225 C.3     1  UNL1        0.0538
     17 C         140.3789  139.8403  166.6375 C.ar    1  UNL1        0.0963
     18 C         137.5465  141.4184  162.4482 C.3     1  UNL1        0.2543
     19 O         138.5883  140.9733  163.4313 O.3     1  UNL1       -0.4551
     20 N         143.6164  137.0204  157.0408 N.pl3   1  UNL1       -0.2786
     21 H         144.5360  137.3718  157.0384 H       1  UNL1        0.1555
     22 C         143.2563  135.8557  156.1668 C.ar    1  UNL1        0.1276
     23 C         142.6617  135.9356  154.7920 C.ar    1  UNL1        0.0244
     24 C         142.4655  134.5359  154.2896 C.ar    1  UNL1        0.0773
     25 N         142.9388  133.5909  155.3540 N.ar    1  UNL1       -0.1728
     26 N         143.4276  134.4065  156.5142 N.ar    1  UNL1       -0.2354
     27 C         141.8709  134.6158  152.9148 C.3     1  UNL1        0.0477
     28 C         141.6996  136.0650  152.5675 C.3     1  UNL1        0.0112
     29 C         142.1884  136.8807  153.7276 C.3     1  UNL1        0.0308
     30 C         143.9890  133.8676  157.7964 C.3     1  UNL1        0.1668
     31 C         144.7733  132.5889  157.7931 C.3     1  UNL1        0.2195
     32 F         146.0824  132.5101  158.5209 F       1  UNL1       -0.2321
@<TRIPOS>BOND
     1    18    19    1
     2    19     6    1
     3     6     7   ar
     4     7     8   ar
     5     8     1    1
     6     1     2   ar
     7     2     3   ar
     8     3     4   ar
     9     4    20    1
    10    20    22    1
    11    22    23   ar
    12    23    24   ar
    13    24    25   ar
    14    25    26   ar
    15    26    30    1
    16    30    31    1
    17    31    32    1
    18    24    27    1
    19    27    28    1
    20    28    29    1
    21     4     5   ar
    22     8     9   ar
    23     9    10   ar
    24    10    11   ar
    25    11    12    1
    26    12    13   ar
    27    13    14   ar
    28    14    15   ar
    29    15    16    1
    30    15    17   ar
    31    11     6   ar
    32    17    12   ar
    33     5     1   ar
    34    26    22   ar
    35    29    23    1
    36    20    21    1
@<TRIPOS>MOLECULE
*****
 32 36 0 0 0
SMALL
GASTEIGER

@<TRIPOS>ATOM
      1 C         138.1347  141.0573  159.8949 C.ar    1  UNL1        0.1074
      2 C         138.6080  142.2788  159.1641 C.ar    1  UNL1        0.0588
      3 S         138.2469  142.1220  157.7167 S.2     1  UNL1       -0.0508
      4 C         137.5505  140.8036  157.5529 C.ar    1  UNL1        0.1646
      5 N         137.4811  140.1457  158.8990 N.ar    1  UNL1       -0.2224
      6 C         139.4954  139.5798  163.3176 C.ar    1  UNL1        0.2416
      7 N         139.3420  139.8433  161.8489 N.ar    1  UNL1       -0.2089
      8 C         138.2880  140.7938  161.3635 C.ar    1  UNL1        0.1026
      9 C         137.3874  141.4809  162.3469 C.ar    1  UNL1        0.0224
     10 C         137.5407  141.2174  163.8155 C.ar    1  UNL1        0.0239
     11 C         138.5947  140.2668  164.3010 C.ar    1  UNL1        0.1189
     12 N         138.7481  140.0033  165.7696 N.ar    1  UNL1       -0.2826
     13 C         137.9508  139.0226  166.5773 C.ar    1  UNL1        0.1826
     14 N         138.4356  139.0874  167.9953 N.ar    1  UNL1       -0.2280
     15 C         139.5325  140.1083  168.0640 C.ar    1  UNL1        0.0786
     16 C         140.3013  140.4952  169.2925 C.3     1  UNL1        0.0538
     17 C         139.7255  140.6743  166.6885 C.ar    1  UNL1        0.0963
     18 C         140.7490  137.3137  163.1107 C.3     1  UNL1        0.2543
     19 O         140.5493  138.6292  163.8030 O.3     1  UNL1       -0.4551
     20 N         137.0170  140.2419  156.2684 N.pl3   1  UNL1       -0.2786
     21 H         137.5602  139.6097  155.7444 H       1  UNL1        0.1555
     22 C         135.6560  140.6433  155.7822 C.ar    1  UNL1        0.1276
     23 C         134.3478  140.2625  156.4097 C.ar    1  UNL1        0.0244
     24 C         133.2474  140.8799  155.5985 C.ar    1  UNL1        0.0773
     25 N         133.8755  141.6423  154.4697 N.ar    1  UNL1       -0.1728
     26 N         135.3641  141.4961  154.5832 N.ar    1  UNL1       -0.2354
     27 C         131.9393  140.4990  156.2260 C.3     1  UNL1        0.0477
     28 C         132.2312  139.6463  157.4250 C.3     1  UNL1        0.0112
     29 C         133.7198  139.5001  157.5385 C.3     1  UNL1        0.0308
     30 C         136.3819  142.0971  153.6599 C.3     1  UNL1        0.1668
     31 C         137.3149  143.1594  154.1613 C.3     1  UNL1        0.2195
     32 F         136.7719  144.4838  154.6095 F       1  UNL1       -0.2321
@<TRIPOS>BOND
     1    18    19    1
     2    19     6    1
     3     6     7   ar
     4     7     8   ar
     5     8     1    1
     6     1     2   ar
     7     2     3   ar
     8     3     4   ar
     9     4    20    1
    10    20    22    1
    11    22    23   ar
    12    23    24   ar
    13    24    25   ar
    14    25    26   ar
    15    26    30    1
    16    30    31    1
    17    31    32    1
    18    24    27    1
    19    27    28    1
    20    28    29    1
    21     4     5   ar
    22     8     9   ar
    23     9    10   ar
    24    10    11   ar
    25    11    12    1
    26    12    13   ar
    27    13    14   ar
    28    14    15   ar
    29    15    16    1
    30    15    17   ar
    31    11     6   ar
    32    17    12   ar
    33     5     1   ar
    34    26    22   ar
    35    29    23    1
    36    20    21    1
@<TRIPOS>MOLECULE
*****
 32 36 0 0 0
SMALL
GASTEIGER

@<TRIPOS>ATOM
      1 C         138.3282  141.7068  159.6479 C.ar    1  UNL1        0.1074
      2 C         138.2146  140.2205  159.4813 C.ar    1  UNL1        0.0588
      3 S         137.7562  139.6414  160.7869 S.2     1  UNL1       -0.0508
      4 C         137.5864  140.7699  161.7603 C.ar    1  UNL1        0.1646
      5 N         137.9399  142.0463  161.0564 N.ar    1  UNL1       -0.2224
      6 C         138.6635  143.5208  156.1341 C.ar    1  UNL1        0.2416
      7 N         138.2366  142.5453  157.1905 N.ar    1  UNL1       -0.2089
      8 C         138.7550  142.6823  158.5915 C.ar    1  UNL1        0.1026
      9 C         139.7003  143.7950  158.9359 C.ar    1  UNL1        0.0224
     10 C         140.1271  144.7705  157.8794 C.ar    1  UNL1        0.0239
     11 C         139.6088  144.6335  156.4785 C.ar    1  UNL1        0.1189
     12 N         140.0356  145.6090  155.4221 N.ar    1  UNL1       -0.2826
     13 C         141.0582  145.3599  154.3534 C.ar    1  UNL1        0.1826
     14 N         141.1694  146.6018  153.5197 N.ar    1  UNL1       -0.2280
     15 C         140.2155  147.6186  154.0731 C.ar    1  UNL1        0.0786
     16 C         140.0001  149.0055  153.5438 C.3     1  UNL1        0.0538
     17 C         139.5148  147.0050  155.2489 C.ar    1  UNL1        0.0963
     18 C         136.9261  144.1466  154.3067 C.3     1  UNL1        0.2543
     19 O         138.1451  143.3838  154.7332 O.3     1  UNL1       -0.4551
     20 N         137.1413  140.6440  163.1873 N.pl3   1  UNL1       -0.2786
     21 H         136.2686  140.2394  163.3968 H       1  UNL1        0.1555
     22 C         138.0259  141.1345  164.2949 C.ar    1  UNL1        0.1276
     23 C         138.3991  142.5633  164.5581 C.ar    1  UNL1        0.0244
     24 C         139.2964  142.5943  165.7597 C.ar    1  UNL1        0.0773
     25 N         139.4778  141.1846  166.2391 N.ar    1  UNL1       -0.1728
     26 N         138.6926  140.2824  165.3339 N.ar    1  UNL1       -0.2354
     27 C         139.6696  144.0231  166.0229 C.3     1  UNL1        0.0477
     28 C         139.0029  144.8752  164.9839 C.3     1  UNL1        0.0112
     29 C         138.2177  143.9730  164.0786 C.3     1  UNL1        0.0308
     30 C         138.5918  138.7902  165.4476 C.3     1  UNL1        0.1668
     31 C         137.8660  138.1736  166.6065 C.3     1  UNL1        0.2195
     32 F         137.5849  136.7003  166.6174 F       1  UNL1       -0.2321
@<TRIPOS>BOND
     1    18    19    1
     2    19     6    1
     3     6     7   ar
     4     7     8   ar
     5     8     1    1
     6     1     2   ar
     7     2     3   ar
     8     3     4   ar
     9     4    20    1
    10    20    22    1
    11    22    23   ar
    12    23    24   ar
    13    24    25   ar
    14    25    26   ar
    15    26    30    1
    16    30    31    1
    17    31    32    1
    18    24    27    1
    19    27    28    1
    20    28    29    1
    21     4     5   ar
    22     8     9   ar
    23     9    10   ar
    24    10    11   ar
    25    11    12    1
    26    12    13   ar
    27    13    14   ar
    28    14    15   ar
    29    15    16    1
    30    15    17   ar
    31    11     6   ar
    32    17    12   ar
    33     5     1   ar
    34    26    22   ar
    35    29    23    1
    36    20    21    1
@<TRIPOS>MOLECULE
*****
 32 36 0 0 0
SMALL
GASTEIGER

@<TRIPOS>ATOM
      1 C         142.1331  138.2133  159.9892 C.ar    1  UNL1        0.1074
      2 C         140.9915  138.5509  159.0767 C.ar    1  UNL1        0.0588
      3 S         141.3829  138.1629  157.6816 S.2     1  UNL1       -0.0508
      4 C         142.7663  137.5854  157.7320 C.ar    1  UNL1        0.1646
      5 N         143.2300  137.6165  159.1581 N.ar    1  UNL1       -0.2224
      6 C         143.0690  139.7403  163.5307 C.ar    1  UNL1        0.2416
      7 N         143.0310  139.5199  162.0475 N.ar    1  UNL1       -0.2089
      8 C         142.1711  138.4336  161.4724 C.ar    1  UNL1        0.1026
      9 C         141.3493  137.5677  162.3807 C.ar    1  UNL1        0.0224
     10 C         141.3873  137.7881  163.8639 C.ar    1  UNL1        0.0239
     11 C         142.2471  138.8744  164.4389 C.ar    1  UNL1        0.1189
     12 N         142.2851  139.0948  165.9222 N.ar    1  UNL1       -0.2826
     13 C         143.3367  138.5850  166.8626 C.ar    1  UNL1        0.1826
     14 N         142.9797  139.0388  168.2470 N.ar    1  UNL1       -0.2280
     15 C         141.7076  139.8290  168.1622 C.ar    1  UNL1        0.0786
     16 C         140.9905  140.4718  169.3123 C.3     1  UNL1        0.0538
     17 C         141.2783  139.8636  166.7254 C.ar    1  UNL1        0.0963
     18 C         145.3188  141.0384  163.5834 C.3     1  UNL1        0.2543
     19 O         143.9288  140.8266  164.1057 O.3     1  UNL1       -0.4551
     20 N         143.5488  137.0676  156.5616 N.pl3   1  UNL1       -0.2786
     21 H         144.3511  137.5484  156.2543 H       1  UNL1        0.1555
     22 C         143.1089  135.8173  155.8594 C.ar    1  UNL1        0.1276
     23 C         142.4792  135.7446  154.4999 C.ar    1  UNL1        0.0244
     24 C         142.2025  134.3024  154.1937 C.ar    1  UNL1        0.0773
     25 N         142.6613  133.4838  155.3639 N.ar    1  UNL1       -0.1728
     26 N         143.2215  134.4200  156.3934 N.ar    1  UNL1       -0.2354
     27 C         141.5728  134.2297  152.8342 C.3     1  UNL1        0.0477
     28 C         141.4603  135.6269  152.3002 C.3     1  UNL1        0.0112
     29 C         142.0204  136.5632  153.3297 C.3     1  UNL1        0.0308
     30 C         143.7937  134.0279  157.7233 C.3     1  UNL1        0.1668
     31 C         144.6330  132.7904  157.8432 C.3     1  UNL1        0.2195
     32 F         145.3875  132.2776  156.6527 F       1  UNL1       -0.2321
@<TRIPOS>BOND
     1    18    19    1
     2    19     6    1
     3     6     7   ar
     4     7     8   ar
     5     8     1    1
     6     1     2   ar
     7     2     3   ar
     8     3     4   ar
     9     4    20    1
    10    20    22    1
    11    22    23   ar
    12    23    24   ar
    13    24    25   ar
    14    25    26   ar
    15    26    30    1
    16    30    31    1
    17    31    32    1
    18    24    27    1
    19    27    28    1
    20    28    29    1
    21     4     5   ar
    22     8     9   ar
    23     9    10   ar
    24    10    11   ar
    25    11    12    1
    26    12    13   ar
    27    13    14   ar
    28    14    15   ar
    29    15    16    1
    30    15    17   ar
    31    11     6   ar
    32    17    12   ar
    33     5     1   ar
    34    26    22   ar
    35    29    23    1
    36    20    21    1
@<TRIPOS>MOLECULE
*****
 32 36 0 0 0
SMALL
GASTEIGER

@<TRIPOS>ATOM
      1 C         143.4580  142.2842  162.3519 C.ar    1  UNL1        0.1074
      2 C         144.9231  142.2471  162.6713 C.ar    1  UNL1        0.0588
      3 S         145.1015  141.4646  163.9384 S.2     1  UNL1       -0.0508
      4 C         143.7468  141.0180  164.4021 C.ar    1  UNL1        0.1646
      5 N         142.7310  141.5245  163.4216 N.ar    1  UNL1       -0.2224
      6 C         141.0849  144.6195  160.1921 C.ar    1  UNL1        0.2416
      7 N         141.7128  143.9418  161.3738 N.ar    1  UNL1       -0.2089
      8 C         142.8301  142.9619  161.1702 C.ar    1  UNL1        0.1026
      9 C         143.3195  142.6597  159.7847 C.ar    1  UNL1        0.0224
     10 C         142.6916  143.3375  158.6030 C.ar    1  UNL1        0.0239
     11 C         141.5743  144.3173  158.8067 C.ar    1  UNL1        0.1189
     12 N         140.9464  144.9951  157.6250 N.ar    1  UNL1       -0.2826
     13 C         141.5682  146.0816  156.7986 C.ar    1  UNL1        0.1826
     14 N         140.5926  146.4633  155.7251 N.ar    1  UNL1       -0.2280
     15 C         139.3679  145.6127  155.8880 C.ar    1  UNL1        0.0786
     16 C         138.1400  145.6610  155.0277 C.3     1  UNL1        0.0538
     17 C         139.5866  144.7053  157.0621 C.ar    1  UNL1        0.0963
     18 C         139.7377  146.2040  161.7490 C.3     1  UNL1        0.2543
     19 O         139.9675  145.5994  160.3957 O.3     1  UNL1       -0.4551
     20 N         143.4584  140.2071  165.6308 N.pl3   1  UNL1       -0.2786
     21 H         144.1432  139.5983  165.9907 H       1  UNL1        0.1555
     22 C         142.1265  140.3240  166.3109 C.ar    1  UNL1        0.1276
     23 C         140.9027  139.5152  165.9980 C.ar    1  UNL1        0.0244
     24 C         139.8045  139.9615  166.9171 C.ar    1  UNL1        0.0773
     25 N         140.3496  141.0462  167.7981 N.ar    1  UNL1       -0.1728
     26 N         141.7848  141.2703  167.4235 N.ar    1  UNL1       -0.2354
     27 C         138.5806  139.1527  166.6042 C.3     1  UNL1        0.0477
     28 C         138.9225  138.2064  165.4916 C.3     1  UNL1        0.0112
     29 C         140.3575  138.4304  165.1170 C.3     1  UNL1        0.0308
     30 C         142.7147  142.2658  168.0512 C.3     1  UNL1        0.1668
     31 C         143.1040  142.1233  169.4929 C.3     1  UNL1        0.2195
     32 F         144.5355  142.3004  169.9043 F       1  UNL1       -0.2321
@<TRIPOS>BOND
     1    18    19    1
     2    19     6    1
     3     6     7   ar
     4     7     8   ar
     5     8     1    1
     6     1     2   ar
     7     2     3   ar
     8     3     4   ar
     9     4    20    1
    10    20    22    1
    11    22    23   ar
    12    23    24   ar
    13    24    25   ar
    14    25    26   ar
    15    26    30    1
    16    30    31    1
    17    31    32    1
    18    24    27    1
    19    27    28    1
    20    28    29    1
    21     4     5   ar
    22     8     9   ar
    23     9    10   ar
    24    10    11   ar
    25    11    12    1
    26    12    13   ar
    27    13    14   ar
    28    14    15   ar
    29    15    16    1
    30    15    17   ar
    31    11     6   ar
    32    17    12   ar
    33     5     1   ar
    34    26    22   ar
    35    29    23    1
    36    20    21    1
@<TRIPOS>MOLECULE
*****
 32 36 0 0 0
SMALL
GASTEIGER

@<TRIPOS>ATOM
      1 C         140.8913  138.4356  160.0461 C.ar    1  UNL1        0.1074
      2 C         140.0142  138.6537  158.8490 C.ar    1  UNL1        0.0588
      3 S         140.8242  138.3598  157.6212 S.2     1  UNL1       -0.0508
      4 C         142.2019  137.9601  158.0595 C.ar    1  UNL1        0.1646
      5 N         142.2434  138.0069  159.5581 N.ar    1  UNL1       -0.2224
      6 C         139.3863  140.0501  163.3443 C.ar    1  UNL1        0.2416
      7 N         139.7903  139.8710  161.9109 N.ar    1  UNL1       -0.2089
      8 C         140.4873  138.6147  161.4795 C.ar    1  UNL1        0.1026
      9 C         140.7803  137.5376  162.4816 C.ar    1  UNL1        0.0224
     10 C         140.3763  137.7167  163.9150 C.ar    1  UNL1        0.0239
     11 C         139.6793  138.9730  164.3464 C.ar    1  UNL1        0.1189
     12 N         139.2753  139.1521  165.7798 N.ar    1  UNL1       -0.2826
     13 C         138.0703  138.5484  166.4382 C.ar    1  UNL1        0.1826
     14 N         138.0557  138.9896  167.8718 N.ar    1  UNL1       -0.2280
     15 C         139.2516  139.8659  168.0994 C.ar    1  UNL1        0.0786
     16 C         139.6278  140.5259  169.3928 C.3     1  UNL1        0.0538
     17 C         140.0054  139.9663  166.8065 C.ar    1  UNL1        0.0963
     18 C         137.3651  141.6735  163.1747 C.3     1  UNL1        0.2543
     19 O         138.6893  141.3063  163.7758 O.3     1  UNL1       -0.4551
     20 N         143.3386  137.5801  157.1574 N.pl3   1  UNL1       -0.2786
     21 H         144.1798  138.0910  157.1837 H       1  UNL1        0.1555
     22 C         143.1936  136.4219  156.2154 C.ar    1  UNL1        0.1276
     23 C         143.3765  134.9743  156.5632 C.ar    1  UNL1        0.0244
     24 C         143.1362  134.1656  155.3229 C.ar    1  UNL1        0.0773
     25 N         142.8048  135.1134  154.2086 N.ar    1  UNL1       -0.1728
     26 N         142.8402  136.5079  154.7601 N.ar    1  UNL1       -0.2354
     27 C         143.3191  132.7180  155.6707 C.3     1  UNL1        0.0477
     28 C         143.6724  132.6320  157.1260 C.3     1  UNL1        0.0112
     29 C         143.7079  134.0265  157.6776 C.3     1  UNL1        0.0308
     30 C         142.5699  137.7672  153.9914 C.3     1  UNL1        0.1668
     31 C         141.1941  138.0407  153.4598 C.3     1  UNL1        0.2195
     32 F         140.1181  137.0046  153.5950 F       1  UNL1       -0.2321
@<TRIPOS>BOND
     1    18    19    1
     2    19     6    1
     3     6     7   ar
     4     7     8   ar
     5     8     1    1
     6     1     2   ar
     7     2     3   ar
     8     3     4   ar
     9     4    20    1
    10    20    22    1
    11    22    23   ar
    12    23    24   ar
    13    24    25   ar
    14    25    26   ar
    15    26    30    1
    16    30    31    1
    17    31    32    1
    18    24    27    1
    19    27    28    1
    20    28    29    1
    21     4     5   ar
    22     8     9   ar
    23     9    10   ar
    24    10    11   ar
    25    11    12    1
    26    12    13   ar
    27    13    14   ar
    28    14    15   ar
    29    15    16    1
    30    15    17   ar
    31    11     6   ar
    32    17    12   ar
    33     5     1   ar
    34    26    22   ar
    35    29    23    1
    36    20    21    1
@<TRIPOS>MOLECULE
*****
 32 36 0 0 0
SMALL
GASTEIGER

@<TRIPOS>ATOM
      1 C         142.1623  138.3764  158.2703 C.ar    1  UNL1        0.1074
      2 C         142.4065  139.3744  157.1775 C.ar    1  UNL1        0.0588
      3 S         143.1056  138.6689  156.0533 S.2     1  UNL1       -0.0508
      4 C         143.2934  137.2350  156.4514 C.ar    1  UNL1        0.1646
      5 N         142.7104  137.0542  157.8215 N.ar    1  UNL1       -0.2224
      6 C         141.6313  139.3189  162.0886 C.ar    1  UNL1        0.2416
      7 N         142.3053  139.0431  160.7773 N.ar    1  UNL1       -0.2089
      8 C         141.4883  138.6522  159.5816 C.ar    1  UNL1        0.1026
      9 C         139.9971  138.5370  159.6973 C.ar    1  UNL1        0.0224
     10 C         139.3230  138.8128  161.0086 C.ar    1  UNL1        0.0239
     11 C         140.1401  139.2037  162.2043 C.ar    1  UNL1        0.1189
     12 N         139.4661  139.4795  163.5156 N.ar    1  UNL1       -0.2826
     13 C         139.1803  140.8344  164.0923 C.ar    1  UNL1        0.1826
     14 N         138.4971  140.6411  165.4136 N.ar    1  UNL1       -0.2280
     15 C         138.3605  139.1667  165.6535 C.ar    1  UNL1        0.0786
     16 C         137.7350  138.5232  166.8554 C.3     1  UNL1        0.0538
     17 C         138.9594  138.4489  164.4805 C.ar    1  UNL1        0.0963
     18 C         142.9082  138.6615  164.2535 C.3     1  UNL1        0.2543
     19 O         142.4483  139.7098  163.2843 O.3     1  UNL1       -0.4551
     20 N         143.9492  136.1690  155.6246 N.pl3   1  UNL1       -0.2786
     21 H         144.8349  136.3302  155.2261 H       1  UNL1        0.1555
     22 C         143.2554  134.8573  155.4048 C.ar    1  UNL1        0.1276
     23 C         142.4282  134.4868  154.2097 C.ar    1  UNL1        0.0244
     24 C         141.9285  133.0864  154.4079 C.ar    1  UNL1        0.0773
     25 N         142.4469  132.5914  155.7255 N.ar    1  UNL1       -0.1728
     26 N         143.2670  133.6859  156.3418 N.ar    1  UNL1       -0.2354
     27 C         141.1013  132.7158  153.2127 C.3     1  UNL1        0.0477
     28 C         141.0897  133.8872  152.2759 C.3     1  UNL1        0.0112
     29 C         141.9097  134.9817  152.8920 C.3     1  UNL1        0.0308
     30 C         143.9744  133.6205  157.6628 C.3     1  UNL1        0.1668
     31 C         145.0305  132.5813  157.8974 C.3     1  UNL1        0.2195
     32 F         145.6568  131.8724  156.7335 F       1  UNL1       -0.2321
@<TRIPOS>BOND
     1    18    19    1
     2    19     6    1
     3     6     7   ar
     4     7     8   ar
     5     8     1    1
     6     1     2   ar
     7     2     3   ar
     8     3     4   ar
     9     4    20    1
    10    20    22    1
    11    22    23   ar
    12    23    24   ar
    13    24    25   ar
    14    25    26   ar
    15    26    30    1
    16    30    31    1
    17    31    32    1
    18    24    27    1
    19    27    28    1
    20    28    29    1
    21     4     5   ar
    22     8     9   ar
    23     9    10   ar
    24    10    11   ar
    25    11    12    1
    26    12    13   ar
    27    13    14   ar
    28    14    15   ar
    29    15    16    1
    30    15    17   ar
    31    11     6   ar
    32    17    12   ar
    33     5     1   ar
    34    26    22   ar
    35    29    23    1
    36    20    21    1
@<TRIPOS>MOLECULE
*****
 32 36 0 0 0
SMALL
GASTEIGER

@<TRIPOS>ATOM
      1 C         142.7350  138.4823  158.6453 C.ar    1  UNL1        0.1074
      2 C         142.0875  139.8351  158.6742 C.ar    1  UNL1        0.0588
      3 S         142.6792  140.6077  159.8157 S.2     1  UNL1       -0.0508
      4 C         143.6922  139.7325  160.4922 C.ar    1  UNL1        0.1646
      5 N         143.7267  138.4190  159.7688 N.ar    1  UNL1       -0.2224
      6 C         143.1067  135.1443  156.5313 C.ar    1  UNL1        0.2416
      7 N         143.3996  136.2411  157.5117 N.ar    1  UNL1       -0.2089
      8 C         142.4421  137.3855  157.6648 C.ar    1  UNL1        0.1026
      9 C         141.1917  137.4332  156.8375 C.ar    1  UNL1        0.0224
     10 C         140.8988  136.3364  155.8571 C.ar    1  UNL1        0.0239
     11 C         141.8563  135.1919  155.7040 C.ar    1  UNL1        0.1189
     12 N         141.5634  134.0951  154.7235 N.ar    1  UNL1       -0.2826
     13 C         141.6938  134.1877  153.2321 C.ar    1  UNL1        0.1826
     14 N         141.2997  132.8630  152.6493 N.ar    1  UNL1       -0.2280
     15 C         140.9258  131.9517  153.7805 C.ar    1  UNL1        0.0786
     16 C         140.4690  130.5286  153.6522 C.3     1  UNL1        0.0538
     17 C         141.0888  132.7131  155.0624 C.ar    1  UNL1        0.0963
     18 C         144.3055  133.0651  157.5261 C.3     1  UNL1        0.2543
     19 O         144.0642  133.9998  156.3781 O.3     1  UNL1       -0.4551
     20 N         144.5247  140.1054  161.6830 N.pl3   1  UNL1       -0.2786
     21 H         145.4967  140.2275  161.5854 H       1  UNL1        0.1555
     22 C         143.8761  140.2923  163.0226 C.ar    1  UNL1        0.1276
     23 C         144.0801  141.4564  163.9462 C.ar    1  UNL1        0.0244
     24 C         143.2398  141.2315  165.1682 C.ar    1  UNL1        0.0773
     25 N         142.5164  139.9283  164.9998 N.ar    1  UNL1       -0.1728
     26 N         142.9097  139.3478  163.6737 N.ar    1  UNL1       -0.2354
     27 C         143.4438  142.3956  166.0919 C.3     1  UNL1        0.0477
     28 C         144.4102  143.3401  165.4407 C.3     1  UNL1        0.0112
     29 C         144.8035  142.7596  164.1147 C.3     1  UNL1        0.0308
     30 C         142.4221  138.0507  163.0996 C.3     1  UNL1        0.1668
     31 C         141.1559  137.4319  163.6134 C.3     1  UNL1        0.2195
     32 F         141.1879  136.5627  164.8354 F       1  UNL1       -0.2321
@<TRIPOS>BOND
     1    18    19    1
     2    19     6    1
     3     6     7   ar
     4     7     8   ar
     5     8     1    1
     6     1     2   ar
     7     2     3   ar
     8     3     4   ar
     9     4    20    1
    10    20    22    1
    11    22    23   ar
    12    23    24   ar
    13    24    25   ar
    14    25    26   ar
    15    26    30    1
    16    30    31    1
    17    31    32    1
    18    24    27    1
    19    27    28    1
    20    28    29    1
    21     4     5   ar
    22     8     9   ar
    23     9    10   ar
    24    10    11   ar
    25    11    12    1
    26    12    13   ar
    27    13    14   ar
    28    14    15   ar
    29    15    16    1
    30    15    17   ar
    31    11     6   ar
    32    17    12   ar
    33     5     1   ar
    34    26    22   ar
    35    29    23    1
    36    20    21    1
