@<TRIPOS>MOLECULE
*****
 34 38 0 0 0
SMALL
GASTEIGER

@<TRIPOS>ATOM
      1 N         137.8752  142.9775  162.8721 N.3     1  UNL1       -0.2710
      2 C         138.1014  142.6870  161.4181 C.3     1  UNL1        0.0735
      3 C         138.1009  141.2695  160.9274 C.3     1  UNL1        0.0331
      4 C         137.8742  140.1424  161.8910 C.3     1  UNL1        0.0570
      5 C         137.6480  140.4330  163.3451 C.3     1  UNL1        0.0331
      6 C         137.6485  141.8504  163.8357 C.3     1  UNL1        0.0735
      7 N         137.8737  138.7249  161.4004 N.3     1  UNL1       -0.2934
      8 H         137.3088  138.7074  160.5514 H       1  UNL1        0.1236
      9 C         139.1696  138.0444  161.0724 C.3     1  UNL1        0.1152
     10 C         140.3598  138.2265  161.9671 C.ar    1  UNL1        0.0782
     11 C         141.4327  139.2075  161.5976 C.ar    1  UNL1        0.0562
     12 C         142.6229  139.3895  162.4922 C.ar    1  UNL1        0.1752
     13 C         142.7402  138.5905  163.7563 C.ar    1  UNL1        0.1914
     14 C         141.6672  137.6095  164.1257 C.ar    1  UNL1        0.1384
     15 N         140.4771  137.4275  163.2311 N.ar    1  UNL1       -0.2434
     16 O         143.9303  138.7726  164.6509 O.3     1  UNL1       -0.4668
     17 C         145.0032  139.7536  164.2815 C.3     1  UNL1        0.2527
     18 C         144.8859  140.5526  163.0174 C.3     1  UNL1        0.2526
     19 O         143.6958  140.3705  162.1228 O.3     1  UNL1       -0.4683
     20 C         137.8757  144.3950  163.3627 C.3     1  UNL1        0.0970
     21 C         138.8829  144.8350  164.3835 C.3     1  UNL1        0.1263
     22 C         140.8763  141.9772  167.2311 C.ar    1  UNL1        0.2265
     23 C         140.2119  142.9298  166.2819 C.ar    1  UNL1        0.0749
     24 C         140.9958  143.5351  165.1554 C.ar    1  UNL1        0.0686
     25 C         142.4442  143.1878  164.9781 C.ar    1  UNL1        0.0354
     26 C         143.2282  143.7931  163.8516 C.ar    1  UNL1        0.0079
     27 C         142.5637  144.7457  162.9024 C.ar    1  UNL1        0.0609
     28 C         141.1152  145.0930  163.0797 C.ar    1  UNL1        0.2610
     29 O         140.4508  146.0456  162.1304 O.2     1  UNL1       -0.2670
     30 N         140.3313  144.4877  164.2062 N.ar    1  UNL1       -0.2939
     31 C         143.1087  142.2352  165.9273 C.ar    1  UNL1        0.1035
     32 N         142.3247  141.6299  167.0538 N.ar    1  UNL1       -0.2101
     33 C         139.4849  140.0094  168.2015 C.3     1  UNL1        0.2542
     34 O         140.0924  141.3719  168.3577 O.3     1  UNL1       -0.4561
@<TRIPOS>BOND
     1    33    34    1
     2    34    22    1
     3    22    23   ar
     4    23    24   ar
     5    24    25   ar
     6    25    26   ar
     7    26    27   ar
     8    27    28   ar
     9    28    29    2
    10    28    30   ar
    11    30    21    1
    12    21    20    1
    13    20     1    1
    14     1     2    1
    15     2     3    1
    16     3     4    1
    17     4     7    1
    18     7     9    1
    19     9    10    1
    20    10    11   ar
    21    11    12   ar
    22    12    13   ar
    23    13    14   ar
    24    14    15   ar
    25    13    16    1
    26    16    17    1
    27    17    18    1
    28    18    19    1
    29     4     5    1
    30     5     6    1
    31    25    31   ar
    32    31    32   ar
    33    32    22   ar
    34    30    24   ar
    35     6     1    1
    36    15    10   ar
    37    19    12    1
    38     7     8    1
@<TRIPOS>MOLECULE
*****
 34 38 0 0 0
SMALL
GASTEIGER

@<TRIPOS>ATOM
      1 N         138.1394  139.9143  162.5437 N.3     1  UNL1       -0.2710
      2 C         137.8013  140.6690  163.7951 C.3     1  UNL1        0.0735
      3 C         137.6600  142.1619  163.7555 C.3     1  UNL1        0.0331
      4 C         137.8569  142.8999  162.4645 C.3     1  UNL1        0.0570
      5 C         138.1949  142.1451  161.2131 C.3     1  UNL1        0.0331
      6 C         138.3362  140.6523  161.2527 C.3     1  UNL1        0.0735
      7 N         137.7156  144.3927  162.4249 N.3     1  UNL1       -0.2934
      8 H         136.9756  144.6360  163.0834 H       1  UNL1        0.1236
      9 C         138.8905  145.2661  162.7518 C.3     1  UNL1        0.1152
     10 C         140.2800  144.7031  162.7035 C.ar    1  UNL1        0.0782
     11 C         140.9433  144.2338  163.9644 C.ar    1  UNL1        0.0562
     12 C         142.3328  143.6708  163.9161 C.ar    1  UNL1        0.1752
     13 C         143.0590  143.5771  162.6070 C.ar    1  UNL1        0.1914
     14 C         142.3957  144.0465  161.3461 C.ar    1  UNL1        0.1384
     15 N         141.0062  144.6094  161.3944 N.ar    1  UNL1       -0.2434
     16 O         144.4485  143.0142  162.5587 O.3     1  UNL1       -0.4668
     17 C         145.1118  142.5448  163.8195 C.3     1  UNL1        0.2527
     18 C         144.3856  142.6385  165.1287 C.3     1  UNL1        0.2526
     19 O         142.9961  143.2014  165.1770 O.3     1  UNL1       -0.4683
     20 C         138.2806  138.4215  162.5833 C.3     1  UNL1        0.0970
     21 C         139.0596  137.7708  163.6878 C.3     1  UNL1        0.1263
     22 C         139.9642  139.6875  167.6575 C.ar    1  UNL1        0.2265
     23 C         139.6627  139.0486  166.3343 C.ar    1  UNL1        0.0749
     24 C         140.7539  138.8729  165.3202 C.ar    1  UNL1        0.0686
     25 C         142.1467  139.3360  165.6294 C.ar    1  UNL1        0.0354
     26 C         143.2380  139.1603  164.6153 C.ar    1  UNL1        0.0079
     27 C         142.9364  138.5215  163.2921 C.ar    1  UNL1        0.0609
     28 C         141.5436  138.0583  162.9829 C.ar    1  UNL1        0.2610
     29 O         141.2420  137.4194  161.6597 O.2     1  UNL1       -0.2670
     30 N         140.4523  138.2340  163.9970 N.ar    1  UNL1       -0.2939
     31 C         142.4482  139.9749  166.9526 C.ar    1  UNL1        0.1035
     32 N         141.3570  140.1506  167.9666 N.ar    1  UNL1       -0.2101
     33 C         139.1807  140.4747  170.0061 C.3     1  UNL1        0.2542
     34 O         138.8730  139.8632  168.6715 O.3     1  UNL1       -0.4561
@<TRIPOS>BOND
     1    33    34    1
     2    34    22    1
     3    22    23   ar
     4    23    24   ar
     5    24    25   ar
     6    25    26   ar
     7    26    27   ar
     8    27    28   ar
     9    28    29    2
    10    28    30   ar
    11    30    21    1
    12    21    20    1
    13    20     1    1
    14     1     2    1
    15     2     3    1
    16     3     4    1
    17     4     7    1
    18     7     9    1
    19     9    10    1
    20    10    11   ar
    21    11    12   ar
    22    12    13   ar
    23    13    14   ar
    24    14    15   ar
    25    13    16    1
    26    16    17    1
    27    17    18    1
    28    18    19    1
    29     4     5    1
    30     5     6    1
    31    25    31   ar
    32    31    32   ar
    33    32    22   ar
    34    30    24   ar
    35     6     1    1
    36    15    10   ar
    37    19    12    1
    38     7     8    1
@<TRIPOS>MOLECULE
*****
 34 38 0 0 0
SMALL
GASTEIGER

@<TRIPOS>ATOM
      1 N         142.9973  144.1292  162.3486 N.3     1  UNL1       -0.2710
      2 C         142.3586  144.8655  163.4887 C.3     1  UNL1        0.0735
      3 C         140.8936  145.1853  163.4482 C.3     1  UNL1        0.0331
      4 C         140.0674  144.7688  162.2675 C.3     1  UNL1        0.0570
      5 C         140.7062  144.0325  161.1273 C.3     1  UNL1        0.0331
      6 C         142.1711  143.7128  161.1679 C.3     1  UNL1        0.0735
      7 N         138.6025  145.0886  162.2269 N.3     1  UNL1       -0.2934
      8 H         138.3082  144.9986  161.2544 H       1  UNL1        0.1236
      9 C         137.6367  144.2862  163.0475 C.3     1  UNL1        0.1152
     10 C         137.8378  142.8087  163.2105 C.ar    1  UNL1        0.0782
     11 C         138.2093  142.2456  164.5502 C.ar    1  UNL1        0.0562
     12 C         138.4104  140.7680  164.7132 C.ar    1  UNL1        0.1752
     13 C         138.2400  139.8537  163.5363 C.ar    1  UNL1        0.1914
     14 C         137.8685  140.4168  162.1966 C.ar    1  UNL1        0.1384
     15 N         137.6674  141.8943  162.0337 N.ar    1  UNL1       -0.2434
     16 O         138.4411  138.3762  163.6992 O.3     1  UNL1       -0.4668
     17 C         138.8125  137.8131  165.0389 C.3     1  UNL1        0.2527
     18 C         138.9829  138.7274  166.2158 C.3     1  UNL1        0.2526
     19 O         138.7819  140.2049  166.0529 O.3     1  UNL1       -0.4683
     20 C         144.4622  143.8095  162.3891 C.3     1  UNL1        0.0970
     21 C         144.9170  142.4139  162.6985 C.3     1  UNL1        0.1263
     22 C         143.1535  138.9075  160.4974 C.ar    1  UNL1        0.2265
     23 C         143.7413  140.0763  161.2311 C.ar    1  UNL1        0.0749
     24 C         143.4103  140.2974  162.6773 C.ar    1  UNL1        0.0686
     25 C         142.4915  139.3498  163.3898 C.ar    1  UNL1        0.0354
     26 C         142.1605  139.5710  164.8360 C.ar    1  UNL1        0.0079
     27 C         142.7483  140.7397  165.5697 C.ar    1  UNL1        0.0609
     28 C         143.6672  141.6874  164.8572 C.ar    1  UNL1        0.2610
     29 O         144.2550  142.8562  165.5909 O.2     1  UNL1       -0.2670
     30 N         143.9982  141.4663  163.4110 N.ar    1  UNL1       -0.2939
     31 C         141.9037  138.1810  162.6561 C.ar    1  UNL1        0.1035
     32 N         142.2347  137.9599  161.2099 N.ar    1  UNL1       -0.2101
     33 C         142.6728  137.7250  158.2345 C.3     1  UNL1        0.2542
     34 O         143.4845  138.6863  159.0512 O.3     1  UNL1       -0.4561
@<TRIPOS>BOND
     1    33    34    1
     2    34    22    1
     3    22    23   ar
     4    23    24   ar
     5    24    25   ar
     6    25    26   ar
     7    26    27   ar
     8    27    28   ar
     9    28    29    2
    10    28    30   ar
    11    30    21    1
    12    21    20    1
    13    20     1    1
    14     1     2    1
    15     2     3    1
    16     3     4    1
    17     4     7    1
    18     7     9    1
    19     9    10    1
    20    10    11   ar
    21    11    12   ar
    22    12    13   ar
    23    13    14   ar
    24    14    15   ar
    25    13    16    1
    26    16    17    1
    27    17    18    1
    28    18    19    1
    29     4     5    1
    30     5     6    1
    31    25    31   ar
    32    31    32   ar
    33    32    22   ar
    34    30    24   ar
    35     6     1    1
    36    15    10   ar
    37    19    12    1
    38     7     8    1
@<TRIPOS>MOLECULE
*****
 34 38 0 0 0
SMALL
GASTEIGER

@<TRIPOS>ATOM
      1 N         142.9697  144.1967  162.5084 N.3     1  UNL1       -0.2710
      2 C         142.1862  143.9170  161.2603 C.3     1  UNL1        0.0735
      3 C         140.7272  144.2598  161.1980 C.3     1  UNL1        0.0331
      4 C         140.0517  144.8821  162.3839 C.3     1  UNL1        0.0570
      5 C         140.8352  145.1618  163.6321 C.3     1  UNL1        0.0331
      6 C         142.2942  144.8191  163.6943 C.3     1  UNL1        0.0735
      7 N         138.5927  145.2248  162.3217 N.3     1  UNL1       -0.2934
      8 H         138.3211  145.1788  161.3396 H       1  UNL1        0.1236
      9 C         137.5963  144.4041  163.0855 C.3     1  UNL1        0.1152
     10 C         137.8714  142.9554  163.3606 C.ar    1  UNL1        0.0782
     11 C         137.8258  141.9577  162.2415 C.ar    1  UNL1        0.0562
     12 C         138.1009  140.5089  162.5166 C.ar    1  UNL1        0.1752
     13 C         138.4216  140.0580  163.9108 C.ar    1  UNL1        0.1914
     14 C         138.4672  141.0558  165.0299 C.ar    1  UNL1        0.1384
     15 N         138.1921  142.5045  164.7548 N.ar    1  UNL1       -0.2434
     16 O         138.6966  138.6094  164.1859 O.3     1  UNL1       -0.4668
     17 C         138.6510  137.6117  163.0668 C.3     1  UNL1        0.2527
     18 C         138.3303  138.0626  161.6726 C.3     1  UNL1        0.2526
     19 O         138.0552  139.5112  161.3975 O.3     1  UNL1       -0.4683
     20 C         144.4287  143.8540  162.5707 C.3     1  UNL1        0.0970
     21 C         144.8782  142.6153  163.2874 C.3     1  UNL1        0.1263
     22 C         142.9202  141.8427  167.2647 C.ar    1  UNL1        0.2265
     23 C         143.5729  142.1002  165.9389 C.ar    1  UNL1        0.0749
     24 C         143.2844  141.2008  164.7737 C.ar    1  UNL1        0.0686
     25 C         142.3433  140.0439  164.9342 C.ar    1  UNL1        0.0354
     26 C         142.0548  139.1445  163.7689 C.ar    1  UNL1        0.0079
     27 C         142.7075  139.4020  162.4432 C.ar    1  UNL1        0.0609
     28 C         143.6486  140.5589  162.2826 C.ar    1  UNL1        0.2610
     29 O         144.3013  140.8164  160.9568 O.2     1  UNL1       -0.2670
     30 N         143.9371  141.4583  163.4479 N.ar    1  UNL1       -0.2939
     31 C         141.6907  139.7864  166.2600 C.ar    1  UNL1        0.1035
     32 N         141.9791  140.6858  167.4252 N.ar    1  UNL1       -0.2101
     33 C         143.6790  142.1587  169.7293 C.3     1  UNL1        0.2542
     34 O         143.2087  142.7421  168.4300 O.3     1  UNL1       -0.4561
@<TRIPOS>BOND
     1    33    34    1
     2    34    22    1
     3    22    23   ar
     4    23    24   ar
     5    24    25   ar
     6    25    26   ar
     7    26    27   ar
     8    27    28   ar
     9    28    29    2
    10    28    30   ar
    11    30    21    1
    12    21    20    1
    13    20     1    1
    14     1     2    1
    15     2     3    1
    16     3     4    1
    17     4     7    1
    18     7     9    1
    19     9    10    1
    20    10    11   ar
    21    11    12   ar
    22    12    13   ar
    23    13    14   ar
    24    14    15   ar
    25    13    16    1
    26    16    17    1
    27    17    18    1
    28    18    19    1
    29     4     5    1
    30     5     6    1
    31    25    31   ar
    32    31    32   ar
    33    32    22   ar
    34    30    24   ar
    35     6     1    1
    36    15    10   ar
    37    19    12    1
    38     7     8    1
@<TRIPOS>MOLECULE
*****
 34 38 0 0 0
SMALL
GASTEIGER

@<TRIPOS>ATOM
      1 N         143.0021  141.3879  166.8887 N.3     1  UNL1       -0.2710
      2 C         143.5619  142.1908  165.7521 C.3     1  UNL1        0.0735
      3 C         144.1877  141.4956  164.5794 C.3     1  UNL1        0.0331
      4 C         144.2537  139.9975  164.5434 C.3     1  UNL1        0.0570
      5 C         143.6939  139.1946  165.6801 C.3     1  UNL1        0.0331
      6 C         143.0681  139.8898  166.8527 C.3     1  UNL1        0.0735
      7 N         144.8794  139.3023  163.3708 N.3     1  UNL1       -0.2934
      8 H         145.0511  138.3385  163.6571 H       1  UNL1        0.1236
      9 C         144.1531  139.2417  162.0598 C.3     1  UNL1        0.1152
     10 C         142.6809  138.9555  162.0305 C.ar    1  UNL1        0.0782
     11 C         141.7614  139.8354  161.2365 C.ar    1  UNL1        0.0562
     12 C         140.2892  139.5492  161.2073 C.ar    1  UNL1        0.1752
     13 C         139.7365  138.3832  161.9720 C.ar    1  UNL1        0.1914
     14 C         140.6560  137.5033  162.7661 C.ar    1  UNL1        0.1384
     15 N         142.1281  137.7895  162.7953 N.ar    1  UNL1       -0.2434
     16 O         138.2644  138.0970  161.9428 O.3     1  UNL1       -0.4668
     17 C         137.3450  138.9769  161.1488 C.3     1  UNL1        0.2527
     18 C         137.8977  140.1429  160.3841 C.3     1  UNL1        0.2526
     19 O         139.3698  140.4291  160.4133 O.3     1  UNL1       -0.4683
     20 C         142.3764  142.0831  168.0613 C.3     1  UNL1        0.0970
     21 C         140.8926  142.2996  168.1006 C.3     1  UNL1        0.1263
     22 C         139.6138  143.6746  164.0111 C.ar    1  UNL1        0.2265
     23 C         140.0400  143.2163  165.3742 C.ar    1  UNL1        0.0749
     24 C         139.5607  141.8983  165.9062 C.ar    1  UNL1        0.0686
     25 C         138.6551  141.0386  165.0751 C.ar    1  UNL1        0.0354
     26 C         138.1757  139.7206  165.6072 C.ar    1  UNL1        0.0079
     27 C         138.6020  139.2622  166.9703 C.ar    1  UNL1        0.0609
     28 C         139.5076  140.1219  167.8015 C.ar    1  UNL1        0.2610
     29 O         139.9339  139.6636  169.1646 O.2     1  UNL1       -0.2670
     30 N         139.9870  141.4400  167.2695 N.ar    1  UNL1       -0.2939
     31 C         138.2288  141.4969  163.7120 C.ar    1  UNL1        0.1035
     32 N         138.7082  142.8150  163.1800 N.ar    1  UNL1       -0.2101
     33 C         141.5635  145.2741  163.3864 C.3     1  UNL1        0.2542
     34 O         140.0931  144.9927  163.4791 O.3     1  UNL1       -0.4561
@<TRIPOS>BOND
     1    33    34    1
     2    34    22    1
     3    22    23   ar
     4    23    24   ar
     5    24    25   ar
     6    25    26   ar
     7    26    27   ar
     8    27    28   ar
     9    28    29    2
    10    28    30   ar
    11    30    21    1
    12    21    20    1
    13    20     1    1
    14     1     2    1
    15     2     3    1
    16     3     4    1
    17     4     7    1
    18     7     9    1
    19     9    10    1
    20    10    11   ar
    21    11    12   ar
    22    12    13   ar
    23    13    14   ar
    24    14    15   ar
    25    13    16    1
    26    16    17    1
    27    17    18    1
    28    18    19    1
    29     4     5    1
    30     5     6    1
    31    25    31   ar
    32    31    32   ar
    33    32    22   ar
    34    30    24   ar
    35     6     1    1
    36    15    10   ar
    37    19    12    1
    38     7     8    1
@<TRIPOS>MOLECULE
*****
 34 38 0 0 0
SMALL
GASTEIGER

@<TRIPOS>ATOM
      1 N         139.5262  137.9533  164.5220 N.3     1  UNL1       -0.2710
      2 C         139.1213  138.0352  163.0800 C.3     1  UNL1        0.0735
      3 C         140.1558  137.9035  162.0018 C.3     1  UNL1        0.0331
      4 C         141.5953  137.6898  162.3657 C.3     1  UNL1        0.0570
      5 C         142.0002  137.6079  163.8077 C.3     1  UNL1        0.0331
      6 C         140.9656  137.7397  164.8858 C.3     1  UNL1        0.0735
      7 N         142.6298  137.5581  161.2876 N.3     1  UNL1       -0.2934
      8 H         142.1734  137.8061  160.4097 H       1  UNL1        0.1236
      9 C         143.8948  138.3609  161.3599 C.3     1  UNL1        0.1152
     10 C         143.8292  139.8524  161.5055 C.ar    1  UNL1        0.0782
     11 C         144.0088  140.4829  162.8546 C.ar    1  UNL1        0.0562
     12 C         143.9433  141.9745  163.0002 C.ar    1  UNL1        0.1752
     13 C         143.6982  142.8354  161.7966 C.ar    1  UNL1        0.1914
     14 C         143.5186  142.2048  160.4474 C.ar    1  UNL1        0.1384
     15 N         143.5841  140.7134  160.3019 N.ar    1  UNL1       -0.2434
     16 O         143.6326  144.3269  161.9421 O.3     1  UNL1       -0.4668
     17 C         143.8122  144.9574  163.2912 C.3     1  UNL1        0.2527
     18 C         144.0574  144.0964  164.4948 C.3     1  UNL1        0.2526
     19 O         144.1229  142.6049  164.3493 O.3     1  UNL1       -0.4683
     20 C         138.4917  138.0851  165.6001 C.3     1  UNL1        0.0970
     21 C         138.0173  139.4440  166.0223 C.3     1  UNL1        0.1263
     22 C         138.6707  142.5401  162.8227 C.ar    1  UNL1        0.2265
     23 C         138.4529  141.5081  163.8892 C.ar    1  UNL1        0.0749
     24 C         139.2249  141.5819  165.1732 C.ar    1  UNL1        0.0686
     25 C         140.2148  142.6878  165.3906 C.ar    1  UNL1        0.0354
     26 C         140.9868  142.7616  166.6745 C.ar    1  UNL1        0.0079
     27 C         140.7690  141.7297  167.7410 C.ar    1  UNL1        0.0609
     28 C         139.7792  140.6237  167.5237 C.ar    1  UNL1        0.2610
     29 O         139.5614  139.5918  168.5902 O.2     1  UNL1       -0.2670
     30 N         139.0071  140.5499  166.2397 N.ar    1  UNL1       -0.2939
     31 C         140.4325  143.7198  164.3240 C.ar    1  UNL1        0.1035
     32 N         139.6605  143.6459  163.0401 N.ar    1  UNL1       -0.2101
     33 C         138.3910  141.6018  160.4162 C.3     1  UNL1        0.2542
     34 O         137.8986  142.4662  161.5388 O.3     1  UNL1       -0.4561
@<TRIPOS>BOND
     1    33    34    1
     2    34    22    1
     3    22    23   ar
     4    23    24   ar
     5    24    25   ar
     6    25    26   ar
     7    26    27   ar
     8    27    28   ar
     9    28    29    2
    10    28    30   ar
    11    30    21    1
    12    21    20    1
    13    20     1    1
    14     1     2    1
    15     2     3    1
    16     3     4    1
    17     4     7    1
    18     7     9    1
    19     9    10    1
    20    10    11   ar
    21    11    12   ar
    22    12    13   ar
    23    13    14   ar
    24    14    15   ar
    25    13    16    1
    26    16    17    1
    27    17    18    1
    28    18    19    1
    29     4     5    1
    30     5     6    1
    31    25    31   ar
    32    31    32   ar
    33    32    22   ar
    34    30    24   ar
    35     6     1    1
    36    15    10   ar
    37    19    12    1
    38     7     8    1
@<TRIPOS>MOLECULE
*****
 34 38 0 0 0
SMALL
GASTEIGER

@<TRIPOS>ATOM
      1 N         143.3642  140.4259  160.6420 N.3     1  UNL1       -0.2710
      2 C         144.1908  139.2978  161.1843 C.3     1  UNL1        0.0735
      3 C         143.5250  138.1446  161.8749 C.3     1  UNL1        0.0331
      4 C         142.0325  138.1195  162.0231 C.3     1  UNL1        0.0570
      5 C         141.2059  139.2476  161.4807 C.3     1  UNL1        0.0331
      6 C         141.8717  140.4008  160.7902 C.3     1  UNL1        0.0735
      7 N         141.3667  136.9663  162.7136 N.3     1  UNL1       -0.2934
      8 H         142.0856  136.2587  162.8648 H       1  UNL1        0.1236
      9 C         140.6812  137.1756  164.0312 C.3     1  UNL1        0.1152
     10 C         141.2274  138.1716  165.0109 C.ar    1  UNL1        0.0782
     11 C         140.3939  139.3463  165.4297 C.ar    1  UNL1        0.0562
     12 C         140.9400  140.3423  166.4094 C.ar    1  UNL1        0.1752
     13 C         142.3197  140.1635  166.9703 C.ar    1  UNL1        0.1914
     14 C         143.1532  138.9888  166.5515 C.ar    1  UNL1        0.1384
     15 N         142.6070  137.9928  165.5719 N.ar    1  UNL1       -0.2434
     16 O         142.8658  141.1594  167.9500 O.3     1  UNL1       -0.4668
     17 C         142.0324  142.3341  168.3688 C.3     1  UNL1        0.2527
     18 C         140.6527  142.5129  167.8078 C.3     1  UNL1        0.2526
     19 O         140.1065  141.5170  166.8282 O.3     1  UNL1       -0.4683
     20 C         144.0300  141.5790  159.9515 C.3     1  UNL1        0.0970
     21 C         144.4682  142.7756  160.7430 C.3     1  UNL1        0.1263
     22 C         140.6227  144.9562  161.5837 C.ar    1  UNL1        0.2265
     23 C         141.9045  144.2293  161.3035 C.ar    1  UNL1        0.0749
     24 C         142.7179  143.6789  162.4373 C.ar    1  UNL1        0.0686
     25 C         142.2495  143.8554  163.8513 C.ar    1  UNL1        0.0354
     26 C         143.0629  143.3050  164.9850 C.ar    1  UNL1        0.0079
     27 C         144.3447  142.5781  164.7048 C.ar    1  UNL1        0.0609
     28 C         144.8132  142.4016  163.2908 C.ar    1  UNL1        0.2610
     29 O         146.0950  141.6747  163.0105 O.2     1  UNL1       -0.2670
     30 N         143.9998  142.9520  162.1570 N.ar    1  UNL1       -0.2939
     31 C         140.9677  144.5822  164.1315 C.ar    1  UNL1        0.1035
     32 N         140.1543  145.1327  162.9977 N.ar    1  UNL1       -0.2101
     33 C         140.3292  145.4254  159.0453 C.3     1  UNL1        0.2542
     34 O         139.8093  145.5066  160.4499 O.3     1  UNL1       -0.4561
@<TRIPOS>BOND
     1    33    34    1
     2    34    22    1
     3    22    23   ar
     4    23    24   ar
     5    24    25   ar
     6    25    26   ar
     7    26    27   ar
     8    27    28   ar
     9    28    29    2
    10    28    30   ar
    11    30    21    1
    12    21    20    1
    13    20     1    1
    14     1     2    1
    15     2     3    1
    16     3     4    1
    17     4     7    1
    18     7     9    1
    19     9    10    1
    20    10    11   ar
    21    11    12   ar
    22    12    13   ar
    23    13    14   ar
    24    14    15   ar
    25    13    16    1
    26    16    17    1
    27    17    18    1
    28    18    19    1
    29     4     5    1
    30     5     6    1
    31    25    31   ar
    32    31    32   ar
    33    32    22   ar
    34    30    24   ar
    35     6     1    1
    36    15    10   ar
    37    19    12    1
    38     7     8    1
@<TRIPOS>MOLECULE
*****
 34 38 0 0 0
SMALL
GASTEIGER

@<TRIPOS>ATOM
      1 N         141.8138  138.1257  163.6972 N.3     1  UNL1       -0.2710
      2 C         142.1824  138.5382  162.3029 C.3     1  UNL1        0.0735
      3 C         143.4279  139.3386  162.0620 C.3     1  UNL1        0.0331
      4 C         144.3049  139.7265  163.2154 C.3     1  UNL1        0.0570
      5 C         143.9363  139.3140  164.6098 C.3     1  UNL1        0.0331
      6 C         142.6908  138.5137  164.8506 C.3     1  UNL1        0.0735
      7 N         145.5504  140.5269  162.9746 N.3     1  UNL1       -0.2934
      8 H         145.7437  140.4770  161.9743 H       1  UNL1        0.1236
      9 C         145.5942  141.9779  163.3522 C.3     1  UNL1        0.1152
     10 C         144.3744  142.8342  163.1824 C.ar    1  UNL1        0.0782
     11 C         143.8979  143.1966  161.8071 C.ar    1  UNL1        0.0562
     12 C         142.6781  144.0529  161.6372 C.ar    1  UNL1        0.1752
     13 C         141.9348  144.5469  162.8429 C.ar    1  UNL1        0.1914
     14 C         142.4113  144.1845  164.2183 C.ar    1  UNL1        0.1384
     15 N         143.6310  143.3282  164.3880 N.ar    1  UNL1       -0.2434
     16 O         140.7150  145.4032  162.6731 O.3     1  UNL1       -0.4668
     17 C         140.2385  145.7655  161.2977 C.3     1  UNL1        0.2527
     18 C         140.9819  145.2716  160.0921 C.3     1  UNL1        0.2526
     19 O         142.2016  144.4153  160.2619 O.3     1  UNL1       -0.4683
     20 C         140.5683  137.3254  163.9380 C.3     1  UNL1        0.0970
     21 C         139.3445  137.9914  164.4939 C.3     1  UNL1        0.1263
     22 C         140.0641  141.8749  166.6503 C.ar    1  UNL1        0.2265
     23 C         139.8242  140.5805  165.9315 C.ar    1  UNL1        0.0749
     24 C         139.0970  140.5746  164.6196 C.ar    1  UNL1        0.0686
     25 C         138.6096  141.8632  164.0265 C.ar    1  UNL1        0.0354
     26 C         137.8824  141.8574  162.7145 C.ar    1  UNL1        0.0079
     27 C         137.6425  140.5629  161.9957 C.ar    1  UNL1        0.0609
     28 C         138.1299  139.2742  162.5888 C.ar    1  UNL1        0.2610
     29 O         137.8901  137.9797  161.8700 O.2     1  UNL1       -0.2670
     30 N         138.8572  139.2800  163.9008 N.ar    1  UNL1       -0.2939
     31 C         138.8495  143.1577  164.7453 C.ar    1  UNL1        0.1035
     32 N         139.5767  143.1636  166.0572 N.ar    1  UNL1       -0.2101
     33 C         140.5940  143.0148  168.9240 C.3     1  UNL1        0.2542
     34 O         140.7913  141.8808  167.9622 O.3     1  UNL1       -0.4561
@<TRIPOS>BOND
     1    33    34    1
     2    34    22    1
     3    22    23   ar
     4    23    24   ar
     5    24    25   ar
     6    25    26   ar
     7    26    27   ar
     8    27    28   ar
     9    28    29    2
    10    28    30   ar
    11    30    21    1
    12    21    20    1
    13    20     1    1
    14     1     2    1
    15     2     3    1
    16     3     4    1
    17     4     7    1
    18     7     9    1
    19     9    10    1
    20    10    11   ar
    21    11    12   ar
    22    12    13   ar
    23    13    14   ar
    24    14    15   ar
    25    13    16    1
    26    16    17    1
    27    17    18    1
    28    18    19    1
    29     4     5    1
    30     5     6    1
    31    25    31   ar
    32    31    32   ar
    33    32    22   ar
    34    30    24   ar
    35     6     1    1
    36    15    10   ar
    37    19    12    1
    38     7     8    1
@<TRIPOS>MOLECULE
*****
 34 38 0 0 0
SMALL
GASTEIGER

@<TRIPOS>ATOM
      1 N         144.5413  140.2483  163.4086 N.3     1  UNL1       -0.2710
      2 C         144.1117  140.1039  161.9787 C.3     1  UNL1        0.0735
      3 C         143.0456  139.1143  161.6122 C.3     1  UNL1        0.0331
      4 C         142.4093  138.2691  162.6755 C.3     1  UNL1        0.0570
      5 C         142.8390  138.4136  164.1054 C.3     1  UNL1        0.0331
      6 C         143.9050  139.4031  164.4719 C.3     1  UNL1        0.0735
      7 N         141.3433  137.2796  162.3090 N.3     1  UNL1       -0.2934
      8 H         141.2181  136.6690  163.1165 H       1  UNL1        0.1236
      9 C         139.9784  137.7596  161.9134 C.3     1  UNL1        0.1152
     10 C         139.3760  138.9523  162.5952 C.ar    1  UNL1        0.0782
     11 C         139.2814  140.2621  161.8703 C.ar    1  UNL1        0.0562
     12 C         138.6791  141.4548  162.5521 C.ar    1  UNL1        0.1752
     13 C         138.1713  141.3376  163.9586 C.ar    1  UNL1        0.1914
     14 C         138.2659  140.0277  164.6835 C.ar    1  UNL1        0.1384
     15 N         138.8683  138.8351  164.0017 N.ar    1  UNL1       -0.2434
     16 O         137.5690  142.5302  164.6404 O.3     1  UNL1       -0.4668
     17 C         137.4744  143.8400  163.9155 C.3     1  UNL1        0.2527
     18 C         137.9821  143.9572  162.5090 C.3     1  UNL1        0.2526
     19 O         138.5845  142.7646  161.8272 O.3     1  UNL1       -0.4683
     20 C         145.6073  141.2379  163.7751 C.3     1  UNL1        0.0970
     21 C         145.2351  142.5284  164.4430 C.3     1  UNL1        0.1263
     22 C         142.1831  141.7857  167.6655 C.ar    1  UNL1        0.2265
     23 C         143.2004  142.0333  166.5913 C.ar    1  UNL1        0.0749
     24 C         142.8277  142.8260  165.3737 C.ar    1  UNL1        0.0686
     25 C         141.4377  143.3711  165.2301 C.ar    1  UNL1        0.0354
     26 C         141.0649  144.1638  164.0124 C.ar    1  UNL1        0.0079
     27 C         142.0822  144.4113  162.9383 C.ar    1  UNL1        0.0609
     28 C         143.4723  143.8662  163.0818 C.ar    1  UNL1        0.2610
     29 O         144.4896  144.1137  162.0077 O.2     1  UNL1       -0.2670
     30 N         143.8451  143.0735  164.2995 N.ar    1  UNL1       -0.2939
     31 C         140.4204  143.1235  166.3042 C.ar    1  UNL1        0.1035
     32 N         140.7931  142.3308  167.5219 N.ar    1  UNL1       -0.2101
     33 C         142.4975  139.4946  168.8494 C.3     1  UNL1        0.2542
     34 O         142.5559  140.9930  168.8831 O.3     1  UNL1       -0.4561
@<TRIPOS>BOND
     1    33    34    1
     2    34    22    1
     3    22    23   ar
     4    23    24   ar
     5    24    25   ar
     6    25    26   ar
     7    26    27   ar
     8    27    28   ar
     9    28    29    2
    10    28    30   ar
    11    30    21    1
    12    21    20    1
    13    20     1    1
    14     1     2    1
    15     2     3    1
    16     3     4    1
    17     4     7    1
    18     7     9    1
    19     9    10    1
    20    10    11   ar
    21    11    12   ar
    22    12    13   ar
    23    13    14   ar
    24    14    15   ar
    25    13    16    1
    26    16    17    1
    27    17    18    1
    28    18    19    1
    29     4     5    1
    30     5     6    1
    31    25    31   ar
    32    31    32   ar
    33    32    22   ar
    34    30    24   ar
    35     6     1    1
    36    15    10   ar
    37    19    12    1
    38     7     8    1
