@<TRIPOS>MOLECULE
*****
 31 33 0 0 0
SMALL
GASTEIGER

@<TRIPOS>ATOM
      1 C         141.5615  138.5563  160.1743 C.ar    1  UNL1        0.1219
      2 C         140.3178  139.3380  160.4775 C.ar    1  UNL1        0.0199
      3 C         139.9235  139.5977  161.9013 C.ar    1  UNL1        0.0014
      4 C         140.7730  139.0756  163.0219 C.ar    1  UNL1        0.0001
      5 C         142.0168  138.2939  162.7187 C.ar    1  UNL1        0.0014
      6 C         142.4110  138.0342  161.2949 C.ar    1  UNL1        0.0199
      7 C         140.3788  139.3352  164.4457 C.ar    1  UNL1       -0.0000
      8 C         139.1751  138.6544  165.0267 C.ar    1  UNL1       -0.0003
      9 C         138.7809  138.9140  166.4505 C.ar    1  UNL1       -0.0042
     10 C         139.5903  139.8545  167.2932 C.ar    1  UNL1       -0.0208
     11 C         140.7940  140.5353  166.7122 C.ar    1  UNL1       -0.0042
     12 C         141.1883  140.2757  165.2885 C.ar    1  UNL1       -0.0003
     13 C         139.1961  140.1141  168.7170 C.3     1  UNL1        0.0437
     14 C         140.2191  140.0112  169.8092 C.3     1  UNL1        0.0768
     15 N         141.3153  141.0302  169.9085 N.3     1  UNL1       -0.2737
     16 C         142.7769  140.7776  169.6849 C.3     1  UNL1        0.0721
     17 C         143.5074  142.0720  169.8871 C.3     1  UNL1        0.0187
     18 C         142.4972  143.1247  170.2356 C.3     1  UNL1        0.0174
     19 C         141.1424  142.4809  170.2488 C.3     1  UNL1        0.0576
     20 C         139.8431  143.1672  170.5496 C.3     1  UNL1        0.0173
     21 S         141.9557  138.2967  158.7505 S.O2    1  UNL1        0.0603
     22 O         140.5093  138.2763  158.3537 O.2     1  UNL1       -0.1530
     23 O         143.4022  138.3170  159.1473 O.2     1  UNL1       -0.1530
     24 N         142.3500  138.0370  157.3267 N.3     1  UNL1       -0.1783
     25 H         141.8508  138.7178  156.7542 H       1  UNL1        0.1488
     26 C         142.1023  136.6908  156.7135 C.3     1  UNL1        0.1047
     27 C         140.9924  136.5117  155.7203 C.3     1  UNL1        0.1544
     28 O         139.5686  136.4560  156.1887 O.3     1  UNL1       -0.3805
     29 H         139.4358  135.6593  156.7258 H       1  UNL1        0.2105
     30 C         142.7315  134.1825  156.4627 C.3     1  UNL1        0.0016
     31 C         142.9643  135.5235  157.0934 C.3     1  UNL1        0.0200
@<TRIPOS>BOND
     1    30    31    1
     2    31    26    1
     3    26    27    1
     4    27    28    1
     5    26    24    1
     6    24    21    1
     7    21    22    2
     8    21    23    2
     9    21     1    1
    10     1     2   ar
    11     2     3   ar
    12     3     4   ar
    13     4     7    1
    14     7     8   ar
    15     8     9   ar
    16     9    10   ar
    17    10    13    1
    18    13    14    1
    19    14    15    1
    20    15    16    1
    21    16    17    1
    22    17    18    1
    23    18    19    1
    24    19    20    1
    25    10    11   ar
    26    11    12   ar
    27     4     5   ar
    28     5     6   ar
    29     6     1   ar
    30    12     7   ar
    31    19    15    1
    32    28    29    1
    33    24    25    1
@<TRIPOS>MOLECULE
*****
 31 33 0 0 0
SMALL
GASTEIGER

@<TRIPOS>ATOM
      1 C         139.5748  140.1173  166.7607 C.ar    1  UNL1        0.1219
      2 C         140.4718  140.9315  165.8762 C.ar    1  UNL1        0.0199
      3 C         140.1827  141.0370  164.4082 C.ar    1  UNL1        0.0014
      4 C         138.9965  140.3282  163.8246 C.ar    1  UNL1        0.0001
      5 C         138.0995  139.5140  164.7091 C.ar    1  UNL1        0.0014
      6 C         138.3886  139.4085  166.1771 C.ar    1  UNL1        0.0199
      7 C         138.7073  140.4337  162.3565 C.ar    1  UNL1       -0.0000
      8 C         137.8292  139.4165  161.6901 C.ar    1  UNL1       -0.0003
      9 C         137.5400  139.5220  160.2220 C.ar    1  UNL1       -0.0042
     10 C         138.1290  140.6447  159.4203 C.ar    1  UNL1       -0.0208
     11 C         139.0071  141.6618  160.0868 C.ar    1  UNL1       -0.0042
     12 C         139.2963  141.5564  161.5548 C.ar    1  UNL1       -0.0003
     13 C         137.8398  140.7501  157.9522 C.3     1  UNL1        0.0437
     14 C         138.7142  140.0388  156.9626 C.3     1  UNL1        0.0768
     15 N         138.0991  139.3237  155.7963 N.3     1  UNL1       -0.2737
     16 C         136.9592  139.8218  154.9581 C.3     1  UNL1        0.0721
     17 C         136.6714  138.7908  153.9073 C.3     1  UNL1        0.0187
     18 C         137.6334  137.6555  154.0960 C.3     1  UNL1        0.0174
     19 C         138.5158  137.9848  155.2635 C.3     1  UNL1        0.0576
     20 C         139.6208  137.1261  155.8033 C.3     1  UNL1        0.0173
     21 S         139.8640  140.0118  168.2288 S.O2    1  UNL1        0.0603
     22 O         138.4719  139.5063  168.4667 O.2     1  UNL1       -0.1530
     23 O         141.2561  140.5172  167.9909 O.2     1  UNL1       -0.1530
     24 N         140.1532  139.9063  169.6969 N.3     1  UNL1       -0.1783
     25 H         139.2937  139.5874  170.1441 H       1  UNL1        0.1488
     26 C         140.6158  141.1127  170.4587 C.3     1  UNL1        0.1047
     27 C         141.8712  141.0469  171.2772 C.3     1  UNL1        0.1544
     28 O         142.2201  142.1711  172.2069 O.3     1  UNL1       -0.3805
     29 H         142.4043  142.9718  171.6913 H       1  UNL1        0.2105
     30 C         140.3536  143.5659  169.6445 C.3     1  UNL1        0.0016
     31 C         139.8232  142.3849  170.4022 C.3     1  UNL1        0.0200
@<TRIPOS>BOND
     1    30    31    1
     2    31    26    1
     3    26    27    1
     4    27    28    1
     5    26    24    1
     6    24    21    1
     7    21    22    2
     8    21    23    2
     9    21     1    1
    10     1     2   ar
    11     2     3   ar
    12     3     4   ar
    13     4     7    1
    14     7     8   ar
    15     8     9   ar
    16     9    10   ar
    17    10    13    1
    18    13    14    1
    19    14    15    1
    20    15    16    1
    21    16    17    1
    22    17    18    1
    23    18    19    1
    24    19    20    1
    25    10    11   ar
    26    11    12   ar
    27     4     5   ar
    28     5     6   ar
    29     6     1   ar
    30    12     7   ar
    31    19    15    1
    32    28    29    1
    33    24    25    1
@<TRIPOS>MOLECULE
*****
 31 33 0 0 0
SMALL
GASTEIGER

@<TRIPOS>ATOM
      1 C         138.9269  141.2770  160.1361 C.ar    1  UNL1        0.1219
      2 C         139.8381  141.6920  159.0192 C.ar    1  UNL1        0.0199
      3 C         140.4823  140.6521  158.1511 C.ar    1  UNL1        0.0014
      4 C         140.2153  139.1972  158.3999 C.ar    1  UNL1        0.0001
      5 C         139.3041  138.7822  159.5168 C.ar    1  UNL1        0.0014
      6 C         138.6599  139.8221  160.3849 C.ar    1  UNL1        0.0199
      7 C         140.8595  138.1573  157.5318 C.ar    1  UNL1       -0.0000
      8 C         142.3142  137.8342  157.7024 C.ar    1  UNL1       -0.0003
      9 C         142.9584  136.7943  156.8343 C.ar    1  UNL1       -0.0042
     10 C         142.1478  136.0775  155.7956 C.ar    1  UNL1       -0.0208
     11 C         140.6930  136.4006  155.6249 C.ar    1  UNL1       -0.0042
     12 C         140.0489  137.4405  156.4930 C.ar    1  UNL1       -0.0003
     13 C         142.7920  135.0375  154.9275 C.3     1  UNL1        0.0437
     14 C         142.3475  133.6076  155.0147 C.3     1  UNL1        0.0768
     15 N         143.3389  132.5332  155.3509 N.3     1  UNL1       -0.2737
     16 C         143.6645  131.3380  154.5050 C.3     1  UNL1        0.0721
     17 C         144.7055  130.5316  155.2233 C.3     1  UNL1        0.0187
     18 C         145.0233  131.2283  156.5131 C.3     1  UNL1        0.0174
     19 C         144.1787  132.4654  156.5920 C.3     1  UNL1        0.0576
     20 C         144.1745  133.4600  157.7147 C.3     1  UNL1        0.0173
     21 S         138.2827  142.3170  161.0042 S.O2    1  UNL1        0.0603
     22 O         138.5003  143.3452  159.9340 O.2     1  UNL1       -0.1530
     23 O         138.0651  141.2887  162.0745 O.2     1  UNL1       -0.1530
     24 N         137.6385  143.3569  161.8723 N.3     1  UNL1       -0.1783
     25 H         137.2804  144.0803  161.2487 H       1  UNL1        0.1488
     26 C         138.4427  144.0550  162.9287 C.3     1  UNL1        0.1047
     27 C         139.4792  145.0659  162.5366 C.3     1  UNL1        0.1544
     28 O         139.2385  145.9710  161.3649 O.3     1  UNL1       -0.3805
     29 H         139.2089  145.4448  160.5506 H       1  UNL1        0.2105
     30 C         138.3308  144.8260  165.4072 C.3     1  UNL1        0.0016
     31 C         138.2104  143.7421  164.3772 C.3     1  UNL1        0.0200
@<TRIPOS>BOND
     1    30    31    1
     2    31    26    1
     3    26    27    1
     4    27    28    1
     5    26    24    1
     6    24    21    1
     7    21    22    2
     8    21    23    2
     9    21     1    1
    10     1     2   ar
    11     2     3   ar
    12     3     4   ar
    13     4     7    1
    14     7     8   ar
    15     8     9   ar
    16     9    10   ar
    17    10    13    1
    18    13    14    1
    19    14    15    1
    20    15    16    1
    21    16    17    1
    22    17    18    1
    23    18    19    1
    24    19    20    1
    25    10    11   ar
    26    11    12   ar
    27     4     5   ar
    28     5     6   ar
    29     6     1   ar
    30    12     7   ar
    31    19    15    1
    32    28    29    1
    33    24    25    1
@<TRIPOS>MOLECULE
*****
 31 33 0 0 0
SMALL
GASTEIGER

@<TRIPOS>ATOM
      1 C         141.6444  139.5038  166.2519 C.ar    1  UNL1        0.1219
      2 C         140.7946  140.3284  165.3311 C.ar    1  UNL1        0.0199
      3 C         140.8086  140.0593  163.8555 C.ar    1  UNL1        0.0014
      4 C         141.6722  138.9656  163.3007 C.ar    1  UNL1        0.0001
      5 C         142.5219  138.1410  164.2215 C.ar    1  UNL1        0.0014
      6 C         142.5080  138.4101  165.6971 C.ar    1  UNL1        0.0199
      7 C         141.6861  138.6965  161.8251 C.ar    1  UNL1       -0.0000
      8 C         140.4335  138.8723  161.0188 C.ar    1  UNL1       -0.0003
      9 C         140.4475  138.6031  159.5432 C.ar    1  UNL1       -0.0042
     10 C         141.7140  138.1583  158.8739 C.ar    1  UNL1       -0.0208
     11 C         142.9665  137.9826  159.6802 C.ar    1  UNL1       -0.0042
     12 C         142.9526  138.2517  161.1557 C.ar    1  UNL1       -0.0003
     13 C         141.7279  137.8892  157.3983 C.3     1  UNL1        0.0437
     14 C         142.8501  137.1014  156.7901 C.3     1  UNL1        0.0768
     15 N         142.7163  135.6176  156.6154 N.3     1  UNL1       -0.2737
     16 C         143.4128  134.5676  157.4292 C.3     1  UNL1        0.0721
     17 C         142.9894  133.2244  156.9129 C.3     1  UNL1        0.0187
     18 C         142.0312  133.4442  155.7800 C.3     1  UNL1        0.0174
     19 C         141.8623  134.9234  155.5961 C.3     1  UNL1        0.0576
     20 C         140.9924  135.5909  154.5727 C.3     1  UNL1        0.0173
     21 S         141.6305  139.7729  167.7275 S.O2    1  UNL1        0.0603
     22 O         143.0303  139.2453  167.8369 O.2     1  UNL1       -0.1530
     23 O         140.2306  140.3006  167.6180 O.2     1  UNL1       -0.1530
     24 N         141.6166  140.0420  169.2031 N.3     1  UNL1       -0.1783
     25 H         140.8009  139.5612  169.5824 H       1  UNL1        0.1488
     26 C         141.5605  141.4535  169.7075 C.3     1  UNL1        0.1047
     27 C         140.4958  141.8597  170.6830 C.3     1  UNL1        0.1544
     28 O         140.8544  142.1342  172.1134 O.3     1  UNL1       -0.3805
     29 H         141.1558  141.3139  172.5343 H       1  UNL1        0.2105
     30 C         143.9568  142.4525  169.8061 C.3     1  UNL1        0.0016
     31 C         142.5692  142.4589  169.2366 C.3     1  UNL1        0.0200
@<TRIPOS>BOND
     1    30    31    1
     2    31    26    1
     3    26    27    1
     4    27    28    1
     5    26    24    1
     6    24    21    1
     7    21    22    2
     8    21    23    2
     9    21     1    1
    10     1     2   ar
    11     2     3   ar
    12     3     4   ar
    13     4     7    1
    14     7     8   ar
    15     8     9   ar
    16     9    10   ar
    17    10    13    1
    18    13    14    1
    19    14    15    1
    20    15    16    1
    21    16    17    1
    22    17    18    1
    23    18    19    1
    24    19    20    1
    25    10    11   ar
    26    11    12   ar
    27     4     5   ar
    28     5     6   ar
    29     6     1   ar
    30    12     7   ar
    31    19    15    1
    32    28    29    1
    33    24    25    1
@<TRIPOS>MOLECULE
*****
 31 33 0 0 0
SMALL
GASTEIGER

@<TRIPOS>ATOM
      1 C         142.5052  140.3890  166.3585 C.ar    1  UNL1        0.1219
      2 C         142.3561  141.4087  165.2687 C.ar    1  UNL1        0.0199
      3 C         142.2517  140.9683  163.8386 C.ar    1  UNL1        0.0014
      4 C         142.2964  139.5081  163.4983 C.ar    1  UNL1        0.0001
      5 C         142.4455  138.4884  164.5882 C.ar    1  UNL1        0.0014
      6 C         142.5499  138.9288  166.0182 C.ar    1  UNL1        0.0199
      7 C         142.1920  139.0677  162.0682 C.ar    1  UNL1       -0.0000
      8 C         141.1551  139.6747  161.1703 C.ar    1  UNL1       -0.0003
      9 C         141.0507  139.2343  159.7402 C.ar    1  UNL1       -0.0042
     10 C         141.9832  138.1869  159.2081 C.ar    1  UNL1       -0.0208
     11 C         143.0202  137.5799  160.1060 C.ar    1  UNL1       -0.0042
     12 C         143.1246  138.0203  161.5361 C.ar    1  UNL1       -0.0003
     13 C         141.8789  137.7465  157.7780 C.3     1  UNL1        0.0437
     14 C         142.9054  136.8163  157.2028 C.3     1  UNL1        0.0768
     15 N         142.4737  135.5516  156.5216 N.3     1  UNL1       -0.2737
     16 C         141.4993  135.4504  155.3856 C.3     1  UNL1        0.0721
     17 C         141.3639  134.0024  155.0186 C.3     1  UNL1        0.0187
     18 C         142.2545  133.2085  155.9277 C.3     1  UNL1        0.0174
     19 C         142.9405  134.1660  156.8566 C.3     1  UNL1        0.0576
     20 C         143.9209  133.8018  157.9317 C.3     1  UNL1        0.0173
     21 S         142.6096  140.8294  167.7886 S.O2    1  UNL1        0.0603
     22 O         143.1720  142.1463  167.3420 O.2     1  UNL1       -0.1530
     23 O         142.0472  139.5125  168.2352 O.2     1  UNL1       -0.1530
     24 N         142.7139  141.2698  169.2187 N.3     1  UNL1       -0.1783
     25 H         143.1471  140.5023  169.7322 H       1  UNL1        0.1488
     26 C         141.4784  141.6553  169.9768 C.3     1  UNL1        0.1047
     27 C         141.2044  141.0503  171.3218 C.3     1  UNL1        0.1544
     28 O         140.1694  139.9738  171.4631 O.3     1  UNL1       -0.3805
     29 H         139.2927  140.3406  171.2684 H       1  UNL1        0.2105
     30 C         140.4169  144.0267  169.9676 C.3     1  UNL1        0.0016
     31 C         140.5169  142.6459  169.3900 C.3     1  UNL1        0.0200
@<TRIPOS>BOND
     1    30    31    1
     2    31    26    1
     3    26    27    1
     4    27    28    1
     5    26    24    1
     6    24    21    1
     7    21    22    2
     8    21    23    2
     9    21     1    1
    10     1     2   ar
    11     2     3   ar
    12     3     4   ar
    13     4     7    1
    14     7     8   ar
    15     8     9   ar
    16     9    10   ar
    17    10    13    1
    18    13    14    1
    19    14    15    1
    20    15    16    1
    21    16    17    1
    22    17    18    1
    23    18    19    1
    24    19    20    1
    25    10    11   ar
    26    11    12   ar
    27     4     5   ar
    28     5     6   ar
    29     6     1   ar
    30    12     7   ar
    31    19    15    1
    32    28    29    1
    33    24    25    1
@<TRIPOS>MOLECULE
*****
 31 33 0 0 0
SMALL
GASTEIGER

@<TRIPOS>ATOM
      1 C         141.1760  145.2464  159.4888 C.ar    1  UNL1        0.1219
      2 C         140.2452  145.8542  160.4957 C.ar    1  UNL1        0.0199
      3 C         140.1926  145.3103  161.8927 C.ar    1  UNL1        0.0014
      4 C         141.0709  144.1587  162.2827 C.ar    1  UNL1        0.0001
      5 C         142.0018  143.5508  161.2758 C.ar    1  UNL1        0.0014
      6 C         142.0544  144.0947  159.8788 C.ar    1  UNL1        0.0199
      7 C         141.0184  143.6148  163.6797 C.ar    1  UNL1       -0.0000
      8 C         139.7169  143.5860  164.4248 C.ar    1  UNL1       -0.0003
      9 C         139.6644  143.0422  165.8218 C.ar    1  UNL1       -0.0042
     10 C         140.9133  142.5271  166.4736 C.ar    1  UNL1       -0.0208
     11 C         142.2148  142.5560  165.7284 C.ar    1  UNL1       -0.0042
     12 C         142.2673  143.0998  164.3314 C.ar    1  UNL1       -0.0003
     13 C         140.8608  141.9833  167.8705 C.3     1  UNL1        0.0437
     14 C         140.6676  140.5130  168.0962 C.3     1  UNL1        0.0768
     15 N         140.1063  139.6537  167.0023 N.3     1  UNL1       -0.2737
     16 C         138.6545  139.3543  166.7734 C.3     1  UNL1        0.0721
     17 C         138.5492  138.4585  165.5749 C.3     1  UNL1        0.0187
     18 C         139.9361  138.2041  165.0631 C.3     1  UNL1        0.0174
     19 C         140.8985  138.9428  165.9453 C.3     1  UNL1        0.0576
     20 C         142.3909  138.9665  165.7966 C.3     1  UNL1        0.0173
     21 S         141.2286  145.7902  158.0918 S.O2    1  UNL1        0.0603
     22 O         139.8265  146.3027  158.2386 O.2     1  UNL1       -0.1530
     23 O         142.6307  145.2777  157.9451 O.2     1  UNL1       -0.1530
     24 N         141.2811  146.3340  156.6949 N.3     1  UNL1       -0.1783
     25 H         141.1801  147.3463  156.7690 H       1  UNL1        0.1488
     26 C         140.2848  145.8732  155.6727 C.3     1  UNL1        0.1047
     27 C         139.3571  146.8617  155.0306 C.3     1  UNL1        0.1544
     28 O         138.4881  147.7380  155.8833 O.3     1  UNL1       -0.3805
     29 H         137.8409  147.1906  156.3549 H       1  UNL1        0.2105
     30 C         139.1453  143.9433  154.3584 C.3     1  UNL1        0.0016
     31 C         140.2162  144.4238  155.2924 C.3     1  UNL1        0.0200
@<TRIPOS>BOND
     1    30    31    1
     2    31    26    1
     3    26    27    1
     4    27    28    1
     5    26    24    1
     6    24    21    1
     7    21    22    2
     8    21    23    2
     9    21     1    1
    10     1     2   ar
    11     2     3   ar
    12     3     4   ar
    13     4     7    1
    14     7     8   ar
    15     8     9   ar
    16     9    10   ar
    17    10    13    1
    18    13    14    1
    19    14    15    1
    20    15    16    1
    21    16    17    1
    22    17    18    1
    23    18    19    1
    24    19    20    1
    25    10    11   ar
    26    11    12   ar
    27     4     5   ar
    28     5     6   ar
    29     6     1   ar
    30    12     7   ar
    31    19    15    1
    32    28    29    1
    33    24    25    1
@<TRIPOS>MOLECULE
*****
 31 33 0 0 0
SMALL
GASTEIGER

@<TRIPOS>ATOM
      1 C         144.1137  141.3628  159.4661 C.ar    1  UNL1        0.1219
      2 C         144.5108  142.3327  160.5392 C.ar    1  UNL1        0.0199
      3 C         144.2420  142.0096  161.9791 C.ar    1  UNL1        0.0014
      4 C         143.5762  140.7165  162.3459 C.ar    1  UNL1        0.0001
      5 C         143.1791  139.7466  161.2728 C.ar    1  UNL1        0.0014
      6 C         143.4479  140.0698  159.8329 C.ar    1  UNL1        0.0199
      7 C         143.3075  140.3933  163.7858 C.ar    1  UNL1       -0.0000
      8 C         143.9376  139.1856  164.4137 C.ar    1  UNL1       -0.0003
      9 C         143.6688  138.8624  165.8536 C.ar    1  UNL1       -0.0042
     10 C         142.7699  139.7470  166.6657 C.ar    1  UNL1       -0.0208
     11 C         142.1398  140.9547  166.0378 C.ar    1  UNL1       -0.0042
     12 C         142.4086  141.2779  164.5979 C.ar    1  UNL1       -0.0003
     13 C         142.5012  139.4238  168.1056 C.3     1  UNL1        0.0437
     14 C         142.8088  140.4338  169.1710 C.3     1  UNL1        0.0768
     15 N         141.7903  141.4726  169.5363 N.3     1  UNL1       -0.2737
     16 C         141.8752  142.9379  169.2268 C.3     1  UNL1        0.0721
     17 C         140.6454  143.5994  169.7744 C.3     1  UNL1        0.0187
     18 C         139.8003  142.5430  170.4223 C.3     1  UNL1        0.0174
     19 C         140.5078  141.2285  170.2751 C.3     1  UNL1        0.0576
     20 C         140.0189  139.9028  170.7784 C.3     1  UNL1        0.0173
     21 S         144.3825  141.6860  158.0262 S.O2    1  UNL1        0.0603
     22 O         144.6699  140.2390  157.7551 O.2     1  UNL1       -0.1530
     23 O         144.0951  143.1330  158.2973 O.2     1  UNL1       -0.1530
     24 N         144.6513  142.0092  156.5863 N.3     1  UNL1       -0.1783
     25 H         144.0159  141.4351  156.0321 H       1  UNL1        0.1488
     26 C         146.0242  141.8092  156.0164 C.3     1  UNL1        0.1047
     27 C         147.1981  142.5216  156.6203 C.3     1  UNL1        0.1544
     28 O         147.0214  143.3332  157.8693 O.3     1  UNL1       -0.3805
     29 H         146.4486  144.0934  157.6826 H       1  UNL1        0.2105
     30 C         145.0573  140.1485  154.2679 C.3     1  UNL1        0.0016
     31 C         146.2235  140.8968  154.8426 C.3     1  UNL1        0.0200
@<TRIPOS>BOND
     1    30    31    1
     2    31    26    1
     3    26    27    1
     4    27    28    1
     5    26    24    1
     6    24    21    1
     7    21    22    2
     8    21    23    2
     9    21     1    1
    10     1     2   ar
    11     2     3   ar
    12     3     4   ar
    13     4     7    1
    14     7     8   ar
    15     8     9   ar
    16     9    10   ar
    17    10    13    1
    18    13    14    1
    19    14    15    1
    20    15    16    1
    21    16    17    1
    22    17    18    1
    23    18    19    1
    24    19    20    1
    25    10    11   ar
    26    11    12   ar
    27     4     5   ar
    28     5     6   ar
    29     6     1   ar
    30    12     7   ar
    31    19    15    1
    32    28    29    1
    33    24    25    1
@<TRIPOS>MOLECULE
*****
 31 33 0 0 0
SMALL
GASTEIGER

@<TRIPOS>ATOM
      1 C         141.2376  144.1628  160.8046 C.ar    1  UNL1        0.1219
      2 C         142.4965  144.3429  161.6000 C.ar    1  UNL1        0.0199
      3 C         142.7112  143.5489  162.8544 C.ar    1  UNL1        0.0014
      4 C         141.6670  142.5748  163.3134 C.ar    1  UNL1        0.0001
      5 C         140.4081  142.3947  162.5180 C.ar    1  UNL1        0.0014
      6 C         140.1934  143.1887  161.2636 C.ar    1  UNL1        0.0199
      7 C         141.8816  141.7808  164.5678 C.ar    1  UNL1       -0.0000
      8 C         141.0385  140.5712  164.8433 C.ar    1  UNL1       -0.0003
      9 C         141.2532  139.7772  166.0977 C.ar    1  UNL1       -0.0042
     10 C         142.3110  140.1928  167.0766 C.ar    1  UNL1       -0.0208
     11 C         143.1541  141.4024  166.8011 C.ar    1  UNL1       -0.0042
     12 C         142.9394  142.1964  165.5467 C.ar    1  UNL1       -0.0003
     13 C         142.5256  139.3988  168.3310 C.3     1  UNL1        0.0437
     14 C         142.5079  140.0846  169.6649 C.3     1  UNL1        0.0768
     15 N         141.7779  141.3845  169.8303 N.3     1  UNL1       -0.2737
     16 C         142.4089  142.7326  170.0159 C.3     1  UNL1        0.0721
     17 C         141.3098  143.7459  170.1394 C.3     1  UNL1        0.0187
     18 C         139.9995  143.0240  170.0302 C.3     1  UNL1        0.0174
     19 C         140.2887  141.5645  169.8392 C.3     1  UNL1        0.0576
     20 C         139.2682  140.4763  169.6842 C.3     1  UNL1        0.0173
     21 S         141.0230  144.9567  159.5502 S.O2    1  UNL1        0.0603
     22 O         142.4106  144.6136  159.0955 O.2     1  UNL1       -0.1530
     23 O         139.6353  145.2999  160.0049 O.2     1  UNL1       -0.1530
     24 N         140.8083  145.7507  158.2958 N.3     1  UNL1       -0.1783
     25 H         140.1797  146.5172  158.5364 H       1  UNL1        0.1488
     26 C         140.2368  145.0883  157.0775 C.3     1  UNL1        0.1047
     27 C         139.8479  143.6402  157.1238 C.3     1  UNL1        0.1544
     28 O         138.6395  143.2128  157.9028 O.3     1  UNL1       -0.3805
     29 H         138.7916  143.3703  158.8478 H       1  UNL1        0.2105
     30 C         138.8013  146.6708  155.5992 C.3     1  UNL1        0.0016
     31 C         140.0541  145.8737  155.8127 C.3     1  UNL1        0.0200
@<TRIPOS>BOND
     1    30    31    1
     2    31    26    1
     3    26    27    1
     4    27    28    1
     5    26    24    1
     6    24    21    1
     7    21    22    2
     8    21    23    2
     9    21     1    1
    10     1     2   ar
    11     2     3   ar
    12     3     4   ar
    13     4     7    1
    14     7     8   ar
    15     8     9   ar
    16     9    10   ar
    17    10    13    1
    18    13    14    1
    19    14    15    1
    20    15    16    1
    21    16    17    1
    22    17    18    1
    23    18    19    1
    24    19    20    1
    25    10    11   ar
    26    11    12   ar
    27     4     5   ar
    28     5     6   ar
    29     6     1   ar
    30    12     7   ar
    31    19    15    1
    32    28    29    1
    33    24    25    1
@<TRIPOS>MOLECULE
*****
 31 33 0 0 0
SMALL
GASTEIGER

@<TRIPOS>ATOM
      1 C         141.6823  137.7165  157.4964 C.ar    1  UNL1        0.1219
      2 C         142.4678  138.3207  158.6224 C.ar    1  UNL1        0.0199
      3 C         141.7956  139.2436  159.5953 C.ar    1  UNL1        0.0014
      4 C         140.3379  139.5623  159.4421 C.ar    1  UNL1        0.0001
      5 C         139.5524  138.9581  158.3161 C.ar    1  UNL1        0.0014
      6 C         140.2246  138.0352  157.3433 C.ar    1  UNL1        0.0199
      7 C         139.6657  140.4852  160.4149 C.ar    1  UNL1       -0.0000
      8 C         138.9999  141.7366  159.9242 C.ar    1  UNL1       -0.0003
      9 C         138.3277  142.6595  160.8970 C.ar    1  UNL1       -0.0042
     10 C         138.3213  142.3311  162.3605 C.ar    1  UNL1       -0.0208
     11 C         138.9870  141.0797  162.8513 C.ar    1  UNL1       -0.0042
     12 C         139.6592  140.1568  161.8785 C.ar    1  UNL1       -0.0003
     13 C         137.6491  143.2540  163.3334 C.3     1  UNL1        0.0437
     14 C         138.4732  144.1549  164.2045 C.3     1  UNL1        0.0768
     15 N         139.9455  144.2977  163.9554 N.3     1  UNL1       -0.2737
     16 C         141.0383  143.5862  164.6967 C.3     1  UNL1        0.0721
     17 C         142.3516  144.0258  164.1207 C.3     1  UNL1        0.0187
     18 C         142.0706  145.0091  163.0234 C.3     1  UNL1        0.0174
     19 C         140.5835  145.1772  162.9212 C.3     1  UNL1        0.0576
     20 C         139.8613  146.0682  161.9546 C.3     1  UNL1        0.0173
     21 S         142.3545  136.7936  156.5236 S.O2    1  UNL1        0.0603
     22 O         141.0316  136.1591  156.2114 O.2     1  UNL1       -0.1530
     23 O         143.6774  137.4281  156.8358 O.2     1  UNL1       -0.1530
     24 N         143.0267  135.8707  155.5508 N.3     1  UNL1       -0.1783
     25 H         142.5118  135.9422  154.6732 H       1  UNL1        0.1488
     26 C         143.1470  134.4088  155.8644 C.3     1  UNL1        0.1047
     27 C         143.6111  133.9685  157.2211 C.3     1  UNL1        0.1544
     28 O         143.0291  132.7373  157.8499 O.3     1  UNL1       -0.3805
     29 H         142.0893  132.8847  158.0397 H       1  UNL1        0.2105
     30 C         141.4454  132.7497  154.8146 C.3     1  UNL1        0.0016
     31 C         142.8033  133.3872  154.8212 C.3     1  UNL1        0.0200
@<TRIPOS>BOND
     1    30    31    1
     2    31    26    1
     3    26    27    1
     4    27    28    1
     5    26    24    1
     6    24    21    1
     7    21    22    2
     8    21    23    2
     9    21     1    1
    10     1     2   ar
    11     2     3   ar
    12     3     4   ar
    13     4     7    1
    14     7     8   ar
    15     8     9   ar
    16     9    10   ar
    17    10    13    1
    18    13    14    1
    19    14    15    1
    20    15    16    1
    21    16    17    1
    22    17    18    1
    23    18    19    1
    24    19    20    1
    25    10    11   ar
    26    11    12   ar
    27     4     5   ar
    28     5     6   ar
    29     6     1   ar
    30    12     7   ar
    31    19    15    1
    32    28    29    1
    33    24    25    1
