@<TRIPOS>MOLECULE
*****
 32 36 0 0 0
SMALL
GASTEIGER

@<TRIPOS>ATOM
      1 C         144.5666  141.7051  163.5978 C.2     1  UNL1        0.2525
      2 O         146.0632  141.7928  163.5503 O.2     1  UNL1       -0.2698
      3 N         143.7464  142.2657  162.4738 N.am    1  UNL1       -0.2660
      4 C         142.2493  142.2514  162.3825 C.3     1  UNL1        0.1236
      5 C         141.8571  142.9158  161.0962 C.ar    1  UNL1        0.0338
      6 C         140.6894  143.3176  160.2447 C.ar    1  UNL1        0.0991
      7 N         141.2224  143.9908  159.0147 N.ar    1  UNL1       -0.2265
      8 N         142.7196  144.0050  159.1061 N.ar    1  UNL1       -0.1679
      9 C         143.1118  143.3407  160.3925 C.ar    1  UNL1        0.0981
     10 C         144.2795  142.9389  161.2439 C.3     1  UNL1        0.1414
     11 C         140.4023  144.5513  157.8909 C.ar    1  UNL1        0.1102
     12 C         140.4396  146.0215  157.5959 C.ar    1  UNL1        0.0214
     13 C         139.6195  146.5821  156.4719 C.ar    1  UNL1        0.0017
     14 C         138.7620  145.6724  155.6430 C.ar    1  UNL1        0.0024
     15 C         138.7247  144.2021  155.9380 C.ar    1  UNL1        0.0312
     16 C         139.5448  143.6416  157.0618 C.ar    1  UNL1        0.1577
     17 F         139.5074  142.1714  157.3568 F       1  UNL1       -0.2026
     18 C         142.6985  141.2510  167.0697 C.ar    1  UNL1        0.1061
     19 C         142.5370  139.7604  167.1119 C.ar    1  UNL1        0.0215
     20 C         143.0520  138.9179  165.9827 C.ar    1  UNL1        0.0384
     21 C         143.7285  139.5663  164.8113 C.ar    1  UNL1        0.1429
     22 C         143.8900  141.0569  164.7691 C.ar    1  UNL1        0.0888
     23 C         143.3750  141.8993  165.8984 C.ar    1  UNL1        0.0259
     24 C         141.6685  142.9360  169.3280 C.3     1  UNL1        0.1816
     25 S         142.1835  142.0935  168.1989 S.O2    1  UNL1        0.0105
     26 O         143.5669  142.6232  168.4346 O.2     1  UNL1       -0.1686
     27 O         140.8001  141.5638  167.9631 O.2     1  UNL1       -0.1686
     28 O         144.2435  138.7238  163.6821 O.3     1  UNL1       -0.4753
     29 C         143.3444  138.3811  162.5315 C.3     1  UNL1        0.2053
     30 C         141.9473  137.8996  162.7889 C.3     1  UNL1        0.0438
     31 C         140.4834  137.9264  162.4630 C.3     1  UNL1        0.0038
     32 C         140.9913  137.0390  163.5605 C.3     1  UNL1        0.0038
@<TRIPOS>BOND
     1    24    25    1
     2    25    26    2
     3    25    27    2
     4    25    18    1
     5    18    19   ar
     6    19    20   ar
     7    20    21   ar
     8    21    28    1
     9    28    29    1
    10    29    30    1
    11    30    31    1
    12    31    32    1
    13    21    22   ar
    14    22     1    1
    15     1     2    2
    16     1     3   am
    17     3     4    1
    18     4     5    1
    19     5     6   ar
    20     6     7   ar
    21     7    11    1
    22    11    12   ar
    23    12    13   ar
    24    13    14   ar
    25    14    15   ar
    26    15    16   ar
    27    16    17    1
    28     7     8   ar
    29     8     9   ar
    30     9    10    1
    31    22    23   ar
    32    23    18   ar
    33    32    30    1
    34    10     3    1
    35     9     5   ar
    36    16    11   ar
@<TRIPOS>MOLECULE
*****
 32 36 0 0 0
SMALL
GASTEIGER

@<TRIPOS>ATOM
      1 C         139.7638  143.3849  162.1173 C.2     1  UNL1        0.2525
      2 O         138.5457  144.1737  161.7379 O.2     1  UNL1       -0.2698
      3 N         140.8419  143.1363  161.1044 N.am    1  UNL1       -0.2660
      4 C         142.1099  142.3694  161.3366 C.3     1  UNL1        0.1236
      5 C         142.8928  142.3701  160.0571 C.ar    1  UNL1        0.0338
      6 C         144.1604  141.8965  159.4099 C.ar    1  UNL1        0.0991
      7 N         144.1597  142.3711  157.9869 N.ar    1  UNL1       -0.2265
      8 N         142.8916  143.1380  157.7547 N.ar    1  UNL1       -0.1679
      9 C         142.1087  143.1373  159.0342 C.ar    1  UNL1        0.0981
     10 C         140.8411  143.6109  159.6814 C.3     1  UNL1        0.1414
     11 C         145.2377  142.1225  156.9740 C.ar    1  UNL1        0.1102
     12 C         144.9117  141.4222  155.6883 C.ar    1  UNL1        0.0214
     13 C         145.9897  141.1735  154.6753 C.ar    1  UNL1        0.0017
     14 C         147.3938  141.6252  154.9481 C.ar    1  UNL1        0.0024
     15 C         147.7199  142.3256  156.2340 C.ar    1  UNL1        0.0312
     16 C         146.6419  142.5742  157.2468 C.ar    1  UNL1        0.1577
     17 F         146.9679  143.2746  158.5326 F       1  UNL1       -0.2026
     18 C         139.4593  140.9679  165.2503 C.ar    1  UNL1        0.1061
     19 C         140.1841  141.7646  166.2944 C.ar    1  UNL1        0.0215
     20 C         140.7687  143.1013  165.9462 C.ar    1  UNL1        0.0384
     21 C         140.6286  143.6414  164.5537 C.ar    1  UNL1        0.1429
     22 C         139.9039  142.8448  163.5096 C.ar    1  UNL1        0.0888
     23 C         139.3192  141.5080  163.8580 C.ar    1  UNL1        0.0259
     24 C         138.2900  138.2944  165.9468 C.3     1  UNL1        0.1816
     25 S         138.8747  139.6312  165.5985 S.O2    1  UNL1        0.0105
     26 O         138.2704  139.5387  164.2288 O.2     1  UNL1       -0.1686
     27 O         139.4790  139.7237  166.9683 O.2     1  UNL1       -0.1686
     28 O         141.2132  144.9781  164.2055 O.3     1  UNL1       -0.4753
     29 C         142.6479  145.0814  163.7801 C.3     1  UNL1        0.2053
     30 C         143.6570  144.1013  164.3008 C.3     1  UNL1        0.0438
     31 C         144.5499  142.9161  164.0816 C.3     1  UNL1        0.0038
     32 C         144.5120  143.5890  165.4217 C.3     1  UNL1        0.0038
@<TRIPOS>BOND
     1    24    25    1
     2    25    26    2
     3    25    27    2
     4    25    18    1
     5    18    19   ar
     6    19    20   ar
     7    20    21   ar
     8    21    28    1
     9    28    29    1
    10    29    30    1
    11    30    31    1
    12    31    32    1
    13    21    22   ar
    14    22     1    1
    15     1     2    2
    16     1     3   am
    17     3     4    1
    18     4     5    1
    19     5     6   ar
    20     6     7   ar
    21     7    11    1
    22    11    12   ar
    23    12    13   ar
    24    13    14   ar
    25    14    15   ar
    26    15    16   ar
    27    16    17    1
    28     7     8   ar
    29     8     9   ar
    30     9    10    1
    31    22    23   ar
    32    23    18   ar
    33    32    30    1
    34    10     3    1
    35     9     5   ar
    36    16    11   ar
@<TRIPOS>MOLECULE
*****
 32 36 0 0 0
SMALL
GASTEIGER

@<TRIPOS>ATOM
      1 C         142.0394  139.2142  164.4859 C.2     1  UNL1        0.2525
      2 O         141.9388  137.7847  164.9291 O.2     1  UNL1       -0.2698
      3 N         142.5412  139.5393  163.1103 N.am    1  UNL1       -0.2660
      4 C         142.6957  140.9140  162.5302 C.3     1  UNL1        0.1236
      5 C         143.2267  140.7711  161.1346 C.ar    1  UNL1        0.0338
      6 C         143.6503  141.5324  159.9135 C.ar    1  UNL1        0.0991
      7 N         144.0858  140.5400  158.8764 N.ar    1  UNL1       -0.2265
      8 N         143.9313  139.1654  159.4566 N.ar    1  UNL1       -0.1679
      9 C         143.4003  139.3082  160.8522 C.ar    1  UNL1        0.0981
     10 C         142.9767  138.5469  162.0732 C.3     1  UNL1        0.1414
     11 C         144.5877  140.8652  157.5008 C.ar    1  UNL1        0.1102
     12 C         144.1337  140.0517  156.3252 C.ar    1  UNL1        0.0214
     13 C         144.6356  140.3768  154.9495 C.ar    1  UNL1        0.0017
     14 C         145.5914  141.5154  154.7495 C.ar    1  UNL1        0.0024
     15 C         146.0454  142.3289  155.9252 C.ar    1  UNL1        0.0312
     16 C         145.5435  142.0038  157.3008 C.ar    1  UNL1        0.1577
     17 F         145.9975  142.8172  158.4765 F       1  UNL1       -0.2026
     18 C         142.0887  141.7452  167.5423 C.ar    1  UNL1        0.1061
     19 C         140.8352  142.5272  167.2831 C.ar    1  UNL1        0.0215
     20 C         139.9831  142.2048  166.0915 C.ar    1  UNL1        0.0384
     21 C         140.3845  141.1005  165.1591 C.ar    1  UNL1        0.1429
     22 C         141.6380  140.3185  165.4183 C.ar    1  UNL1        0.0888
     23 C         142.4901  140.6409  166.6100 C.ar    1  UNL1        0.0259
     24 C         143.7931  142.3898  169.9256 C.3     1  UNL1        0.1816
     25 S         142.9409  142.0675  168.7339 S.O2    1  UNL1        0.0105
     26 O         143.8899  142.8224  167.8511 O.2     1  UNL1       -0.1686
     27 O         141.9919  141.3126  169.6168 O.2     1  UNL1       -0.1686
     28 O         139.5323  140.7782  163.9675 O.3     1  UNL1       -0.4753
     29 C         138.4050  139.7969  164.0950 C.3     1  UNL1        0.2053
     30 C         138.2788  138.9559  165.3307 C.3     1  UNL1        0.0438
     31 C         138.3626  137.6195  166.0065 C.3     1  UNL1        0.0038
     32 C         137.9764  138.8357  166.7949 C.3     1  UNL1        0.0038
@<TRIPOS>BOND
     1    24    25    1
     2    25    26    2
     3    25    27    2
     4    25    18    1
     5    18    19   ar
     6    19    20   ar
     7    20    21   ar
     8    21    28    1
     9    28    29    1
    10    29    30    1
    11    30    31    1
    12    31    32    1
    13    21    22   ar
    14    22     1    1
    15     1     2    2
    16     1     3   am
    17     3     4    1
    18     4     5    1
    19     5     6   ar
    20     6     7   ar
    21     7    11    1
    22    11    12   ar
    23    12    13   ar
    24    13    14   ar
    25    14    15   ar
    26    15    16   ar
    27    16    17    1
    28     7     8   ar
    29     8     9   ar
    30     9    10    1
    31    22    23   ar
    32    23    18   ar
    33    32    30    1
    34    10     3    1
    35     9     5   ar
    36    16    11   ar
@<TRIPOS>MOLECULE
*****
 32 36 0 0 0
SMALL
GASTEIGER

@<TRIPOS>ATOM
      1 C         141.9053  140.5113  163.5743 C.2     1  UNL1        0.2525
      2 O         142.8844  140.3119  164.6931 O.2     1  UNL1       -0.2698
      3 N         142.0637  139.7463  162.2938 N.am    1  UNL1       -0.2660
      4 C         141.1681  139.8403  161.0941 C.3     1  UNL1        0.1236
      5 C         141.6963  138.9051  160.0471 C.ar    1  UNL1        0.0338
      6 C         141.4693  138.3852  158.6585 C.ar    1  UNL1        0.0991
      7 N         142.5510  137.3920  158.3527 N.ar    1  UNL1       -0.2265
      8 N         143.4466  137.2980  159.5525 N.ar    1  UNL1       -0.1679
      9 C         142.9183  138.2332  160.5995 C.ar    1  UNL1        0.0981
     10 C         143.1454  138.7531  161.9881 C.3     1  UNL1        0.1414
     11 C         142.7094  136.6270  157.0723 C.ar    1  UNL1        0.1102
     12 C         142.4252  137.2949  155.7596 C.ar    1  UNL1        0.0214
     13 C         142.5836  136.5300  154.4790 C.ar    1  UNL1        0.0017
     14 C         143.0260  135.0971  154.5112 C.ar    1  UNL1        0.0024
     15 C         143.3102  134.4292  155.8239 C.ar    1  UNL1        0.0312
     16 C         143.1519  135.1941  157.1044 C.ar    1  UNL1        0.1577
     17 F         143.4360  134.5262  158.4171 F       1  UNL1       -0.2026
     18 C         139.6531  143.7546  163.1759 C.ar    1  UNL1        0.1061
     19 C         138.4930  143.4044  164.0598 C.ar    1  UNL1        0.0215
     20 C         138.4702  142.0899  164.7819 C.ar    1  UNL1        0.0384
     21 C         139.6077  141.1255  164.6201 C.ar    1  UNL1        0.1429
     22 C         140.7679  141.4757  163.7361 C.ar    1  UNL1        0.0888
     23 C         140.7906  142.7903  163.0140 C.ar    1  UNL1        0.0259
     24 C         139.6987  146.3837  161.7317 C.3     1  UNL1        0.1816
     25 S         139.6759  145.0692  162.4538 S.O2    1  UNL1        0.0105
     26 O         138.1765  145.0722  162.4121 O.2     1  UNL1       -0.1686
     27 O         141.1753  145.0661  162.4954 O.2     1  UNL1       -0.1686
     28 O         139.5850  139.8110  165.3422 O.3     1  UNL1       -0.4753
     29 C         139.0227  138.5946  164.6681 C.3     1  UNL1        0.2053
     30 C         138.4527  138.6999  163.2847 C.3     1  UNL1        0.0438
     31 C         138.1190  138.0683  161.9657 C.3     1  UNL1        0.0038
     32 C         137.7991  139.5137  162.2074 C.3     1  UNL1        0.0038
@<TRIPOS>BOND
     1    24    25    1
     2    25    26    2
     3    25    27    2
     4    25    18    1
     5    18    19   ar
     6    19    20   ar
     7    20    21   ar
     8    21    28    1
     9    28    29    1
    10    29    30    1
    11    30    31    1
    12    31    32    1
    13    21    22   ar
    14    22     1    1
    15     1     2    2
    16     1     3   am
    17     3     4    1
    18     4     5    1
    19     5     6   ar
    20     6     7   ar
    21     7    11    1
    22    11    12   ar
    23    12    13   ar
    24    13    14   ar
    25    14    15   ar
    26    15    16   ar
    27    16    17    1
    28     7     8   ar
    29     8     9   ar
    30     9    10    1
    31    22    23   ar
    32    23    18   ar
    33    32    30    1
    34    10     3    1
    35     9     5   ar
    36    16    11   ar
@<TRIPOS>MOLECULE
*****
 32 36 0 0 0
SMALL
GASTEIGER

@<TRIPOS>ATOM
      1 C         141.6433  140.3253  163.5753 C.2     1  UNL1        0.2525
      2 O         142.5823  140.0844  164.7199 O.2     1  UNL1       -0.2698
      3 N         141.8331  139.5897  162.2819 N.am    1  UNL1       -0.2660
      4 C         140.9788  139.7259  161.0565 C.3     1  UNL1        0.1236
      5 C         141.5283  138.8091  160.0041 C.ar    1  UNL1        0.0338
      6 C         141.3399  138.3266  158.5964 C.ar    1  UNL1        0.0991
      7 N         142.4175  137.3256  158.3013 N.ar    1  UNL1       -0.2265
      8 N         143.2718  137.1895  159.5267 N.ar    1  UNL1       -0.1679
      9 C         142.7223  138.1063  160.5791 C.ar    1  UNL1        0.0981
     10 C         142.9106  138.5887  161.9868 C.3     1  UNL1        0.1414
     11 C         142.6073  136.5900  157.0080 C.ar    1  UNL1        0.1102
     12 C         142.2760  137.2609  155.7079 C.ar    1  UNL1        0.0214
     13 C         142.4659  136.5253  154.4145 C.ar    1  UNL1        0.0017
     14 C         142.9870  135.1188  154.4212 C.ar    1  UNL1        0.0024
     15 C         143.3184  134.4479  155.7213 C.ar    1  UNL1        0.0312
     16 C         143.1285  135.1835  157.0146 C.ar    1  UNL1        0.1577
     17 F         143.4598  134.5126  158.3146 F       1  UNL1       -0.2026
     18 C         139.4742  143.6309  163.2308 C.ar    1  UNL1        0.1061
     19 C         138.2565  143.2545  164.0216 C.ar    1  UNL1        0.0215
     20 C         138.1676  141.9018  164.6637 C.ar    1  UNL1        0.0384
     21 C         139.2966  140.9254  164.5148 C.ar    1  UNL1        0.1429
     22 C         140.5144  141.3017  163.7240 C.ar    1  UNL1        0.0888
     23 C         140.6032  142.6545  163.0820 C.ar    1  UNL1        0.0259
     24 C         139.6520  146.3363  161.9468 C.3     1  UNL1        0.1816
     25 S         139.5631  144.9836  162.5888 S.O2    1  UNL1        0.0105
     26 O         138.0813  144.9708  162.3566 O.2     1  UNL1       -0.1686
     27 O         141.0450  144.9964  162.8211 O.2     1  UNL1       -0.1686
     28 O         139.2077  139.5726  165.1568 O.3     1  UNL1       -0.4753
     29 C         138.7601  139.4473  166.5830 C.3     1  UNL1        0.2053
     30 C         139.5188  140.1469  167.6715 C.3     1  UNL1        0.0438
     31 C         140.3374  141.3125  168.1418 C.3     1  UNL1        0.0038
     32 C         140.0142  140.1931  169.0865 C.3     1  UNL1        0.0038
@<TRIPOS>BOND
     1    24    25    1
     2    25    26    2
     3    25    27    2
     4    25    18    1
     5    18    19   ar
     6    19    20   ar
     7    20    21   ar
     8    21    28    1
     9    28    29    1
    10    29    30    1
    11    30    31    1
    12    31    32    1
    13    21    22   ar
    14    22     1    1
    15     1     2    2
    16     1     3   am
    17     3     4    1
    18     4     5    1
    19     5     6   ar
    20     6     7   ar
    21     7    11    1
    22    11    12   ar
    23    12    13   ar
    24    13    14   ar
    25    14    15   ar
    26    15    16   ar
    27    16    17    1
    28     7     8   ar
    29     8     9   ar
    30     9    10    1
    31    22    23   ar
    32    23    18   ar
    33    32    30    1
    34    10     3    1
    35     9     5   ar
    36    16    11   ar
@<TRIPOS>MOLECULE
*****
 32 36 0 0 0
SMALL
GASTEIGER

@<TRIPOS>ATOM
      1 C         141.3652  139.7960  161.8177 C.2     1  UNL1        0.2525
      2 O         142.4550  139.5956  162.8286 O.2     1  UNL1       -0.2698
      3 N         141.4262  139.0852  160.4981 N.am    1  UNL1       -0.2660
      4 C         140.4154  139.1867  159.3945 C.3     1  UNL1        0.1236
      5 C         140.8733  138.3124  158.2649 C.ar    1  UNL1        0.0338
      6 C         140.5316  137.8348  156.8846 C.ar    1  UNL1        0.0991
      7 N         141.6142  136.8978  156.4370 N.ar    1  UNL1       -0.2265
      8 N         142.6249  136.7964  157.5408 N.ar    1  UNL1       -0.1679
      9 C         142.1671  137.6707  158.6704 C.ar    1  UNL1        0.0981
     10 C         142.5088  138.1483  160.0506 C.3     1  UNL1        0.1414
     11 C         141.6752  136.1872  155.1176 C.ar    1  UNL1        0.1102
     12 C         141.5509  136.9643  153.8406 C.ar    1  UNL1        0.0214
     13 C         141.6119  136.2536  152.5211 C.ar    1  UNL1        0.0017
     14 C         141.7974  134.7657  152.4785 C.ar    1  UNL1        0.0024
     15 C         141.9217  133.9885  153.7555 C.ar    1  UNL1        0.0312
     16 C         141.8607  134.6992  155.0749 C.ar    1  UNL1        0.1577
     17 F         141.9850  133.9221  156.3519 F       1  UNL1       -0.2026
     18 C         139.2244  143.1031  162.2971 C.ar    1  UNL1        0.1061
     19 C         137.9123  142.5293  162.7434 C.ar    1  UNL1        0.0215
     20 C         137.7512  141.0444  162.8812 C.ar    1  UNL1        0.0384
     21 C         138.9022  140.1333  162.5726 C.ar    1  UNL1        0.1429
     22 C         140.2143  140.7071  162.1262 C.ar    1  UNL1        0.0888
     23 C         140.3753  142.1921  161.9885 C.ar    1  UNL1        0.0259
     24 C         139.5467  146.0730  162.0215 C.3     1  UNL1        0.1816
     25 S         139.3855  144.5881  162.1593 S.O2    1  UNL1        0.0105
     26 O         140.8415  144.4014  161.8504 O.2     1  UNL1       -0.1686
     27 O         137.9296  144.7747  162.4682 O.2     1  UNL1       -0.1686
     28 O         138.7411  138.6483  162.7104 O.3     1  UNL1       -0.4753
     29 C         139.0262  137.9816  164.0234 C.3     1  UNL1        0.2053
     30 C         138.7049  138.6865  165.3079 C.3     1  UNL1        0.0438
     31 C         137.9269  138.7636  166.5880 C.3     1  UNL1        0.0038
     32 C         138.9265  139.8305  166.2525 C.3     1  UNL1        0.0038
@<TRIPOS>BOND
     1    24    25    1
     2    25    26    2
     3    25    27    2
     4    25    18    1
     5    18    19   ar
     6    19    20   ar
     7    20    21   ar
     8    21    28    1
     9    28    29    1
    10    29    30    1
    11    30    31    1
    12    31    32    1
    13    21    22   ar
    14    22     1    1
    15     1     2    2
    16     1     3   am
    17     3     4    1
    18     4     5    1
    19     5     6   ar
    20     6     7   ar
    21     7    11    1
    22    11    12   ar
    23    12    13   ar
    24    13    14   ar
    25    14    15   ar
    26    15    16   ar
    27    16    17    1
    28     7     8   ar
    29     8     9   ar
    30     9    10    1
    31    22    23   ar
    32    23    18   ar
    33    32    30    1
    34    10     3    1
    35     9     5   ar
    36    16    11   ar
@<TRIPOS>MOLECULE
*****
 32 36 0 0 0
SMALL
GASTEIGER

@<TRIPOS>ATOM
      1 C         138.6240  138.9825  161.4585 C.2     1  UNL1        0.2525
      2 O         137.3900  138.1298  161.4618 O.2     1  UNL1       -0.2698
      3 N         139.1798  139.5027  162.7510 N.am    1  UNL1       -0.2660
      4 C         140.3997  140.3621  162.9038 C.3     1  UNL1        0.1236
      5 C         140.5870  140.6452  164.3649 C.ar    1  UNL1        0.0338
      6 C         141.4567  141.3514  165.3624 C.ar    1  UNL1        0.0991
      7 N         140.8902  141.1034  166.7290 N.ar    1  UNL1       -0.2265
      8 N         139.6703  140.2440  166.5761 N.ar    1  UNL1       -0.1679
      9 C         139.4829  139.9608  165.1150 C.ar    1  UNL1        0.0981
     10 C         138.6132  139.2547  164.1175 C.3     1  UNL1        0.1414
     11 C         141.4459  141.6235  168.0215 C.ar    1  UNL1        0.1102
     12 C         140.8649  142.8579  168.6449 C.ar    1  UNL1        0.0214
     13 C         141.4207  143.3781  169.9375 C.ar    1  UNL1        0.0017
     14 C         142.5574  142.6638  170.6066 C.ar    1  UNL1        0.0024
     15 C         143.1384  141.4293  169.9831 C.ar    1  UNL1        0.0312
     16 C         142.5827  140.9092  168.6906 C.ar    1  UNL1        0.1577
     17 F         143.1636  139.6748  168.0671 F       1  UNL1       -0.2026
     18 C         140.9304  138.6680  158.2441 C.ar    1  UNL1        0.1061
     19 C         140.6587  139.9805  157.5707 C.ar    1  UNL1        0.0215
     20 C         139.7088  140.9604  158.1932 C.ar    1  UNL1        0.0384
     21 C         139.0306  140.6277  159.4892 C.ar    1  UNL1        0.1429
     22 C         139.3023  139.3151  160.1626 C.ar    1  UNL1        0.0888
     23 C         140.2522  138.3353  159.5400 C.ar    1  UNL1        0.0259
     24 C         142.8303  136.7082  156.9992 C.3     1  UNL1        0.1816
     25 S         141.8803  137.6881  157.6216 S.O2    1  UNL1        0.0105
     26 O         140.9234  137.4825  156.4850 O.2     1  UNL1       -0.1686
     27 O         142.8373  137.8938  158.7583 O.2     1  UNL1       -0.1686
     28 O         138.0807  141.6076  160.1117 O.3     1  UNL1       -0.4753
     29 C         138.6109  142.8047  160.8435 C.3     1  UNL1        0.2053
     30 C         138.0757  143.1515  162.2012 C.3     1  UNL1        0.0438
     31 C         137.6934  144.1813  163.2227 C.3     1  UNL1        0.0038
     32 C         137.5311  142.7224  163.5313 C.3     1  UNL1        0.0038
@<TRIPOS>BOND
     1    24    25    1
     2    25    26    2
     3    25    27    2
     4    25    18    1
     5    18    19   ar
     6    19    20   ar
     7    20    21   ar
     8    21    28    1
     9    28    29    1
    10    29    30    1
    11    30    31    1
    12    31    32    1
    13    21    22   ar
    14    22     1    1
    15     1     2    2
    16     1     3   am
    17     3     4    1
    18     4     5    1
    19     5     6   ar
    20     6     7   ar
    21     7    11    1
    22    11    12   ar
    23    12    13   ar
    24    13    14   ar
    25    14    15   ar
    26    15    16   ar
    27    16    17    1
    28     7     8   ar
    29     8     9   ar
    30     9    10    1
    31    22    23   ar
    32    23    18   ar
    33    32    30    1
    34    10     3    1
    35     9     5   ar
    36    16    11   ar
@<TRIPOS>MOLECULE
*****
 32 36 0 0 0
SMALL
GASTEIGER

@<TRIPOS>ATOM
      1 C         139.5460  139.4241  165.1014 C.2     1  UNL1        0.2525
      2 O         138.6031  138.2609  165.1902 O.2     1  UNL1       -0.2698
      3 N         139.5817  140.2677  163.8616 N.am    1  UNL1       -0.2660
      4 C         140.4668  141.4562  163.6291 C.3     1  UNL1        0.1236
      5 C         140.1707  141.9939  162.2604 C.ar    1  UNL1        0.0338
      6 C         140.5347  143.0607  161.2708 C.ar    1  UNL1        0.0991
      7 N         139.6916  142.8639  160.0458 N.ar    1  UNL1       -0.2265
      8 N         138.8065  141.6753  160.2784 N.ar    1  UNL1       -0.1679
      9 C         139.1026  141.1377  161.6471 C.ar    1  UNL1        0.0981
     10 C         138.7386  140.0708  162.6367 C.3     1  UNL1        0.1414
     11 C         139.7273  143.7074  158.8061 C.ar    1  UNL1        0.1102
     12 C         139.1429  143.1858  157.5269 C.ar    1  UNL1        0.0214
     13 C         139.1785  144.0293  156.2870 C.ar    1  UNL1        0.0017
     14 C         139.7987  145.3945  156.3264 C.ar    1  UNL1        0.0024
     15 C         140.3832  145.9162  157.6056 C.ar    1  UNL1        0.0312
     16 C         140.3475  145.0727  158.8454 C.ar    1  UNL1        0.1577
     17 F         140.9319  145.5943  160.1246 F       1  UNL1       -0.2026
     18 C         140.8978  140.9910  168.4878 C.ar    1  UNL1        0.1061
     19 C         142.2675  140.3831  168.5546 C.ar    1  UNL1        0.0215
     20 C         142.7300  139.4556  167.4703 C.ar    1  UNL1        0.0384
     21 C         141.8228  139.1359  166.3192 C.ar    1  UNL1        0.1429
     22 C         140.4531  139.7438  166.2525 C.ar    1  UNL1        0.0888
     23 C         139.9906  140.6714  167.3368 C.ar    1  UNL1        0.0259
     24 C         139.9727  142.8461  170.6564 C.3     1  UNL1        0.1816
     25 S         140.4352  141.9185  169.5721 S.O2    1  UNL1        0.0105
     26 O         141.5370  142.8750  169.2240 O.2     1  UNL1       -0.1686
     27 O         139.3334  140.9621  169.9203 O.2     1  UNL1       -0.1686
     28 O         142.2853  138.2084  165.2349 O.3     1  UNL1       -0.4753
     29 C         142.9808  138.7573  164.0245 C.3     1  UNL1        0.2053
     30 C         143.8798  139.9511  164.1530 C.3     1  UNL1        0.0438
     31 C         144.0920  141.3800  164.5570 C.3     1  UNL1        0.0038
     32 C         145.2248  140.5900  163.9715 C.3     1  UNL1        0.0038
@<TRIPOS>BOND
     1    24    25    1
     2    25    26    2
     3    25    27    2
     4    25    18    1
     5    18    19   ar
     6    19    20   ar
     7    20    21   ar
     8    21    28    1
     9    28    29    1
    10    29    30    1
    11    30    31    1
    12    31    32    1
    13    21    22   ar
    14    22     1    1
    15     1     2    2
    16     1     3   am
    17     3     4    1
    18     4     5    1
    19     5     6   ar
    20     6     7   ar
    21     7    11    1
    22    11    12   ar
    23    12    13   ar
    24    13    14   ar
    25    14    15   ar
    26    15    16   ar
    27    16    17    1
    28     7     8   ar
    29     8     9   ar
    30     9    10    1
    31    22    23   ar
    32    23    18   ar
    33    32    30    1
    34    10     3    1
    35     9     5   ar
    36    16    11   ar
@<TRIPOS>MOLECULE
*****
 32 36 0 0 0
SMALL
GASTEIGER

@<TRIPOS>ATOM
      1 C         143.7923  141.6068  164.1281 C.2     1  UNL1        0.2525
      2 O         145.1098  142.3212  164.1899 O.2     1  UNL1       -0.2698
      3 N         143.4201  140.8242  162.9038 N.am    1  UNL1       -0.2660
      4 C         142.1445  140.0623  162.6984 C.3     1  UNL1        0.1236
      5 C         142.1943  139.4333  161.3376 C.ar    1  UNL1        0.0338
      6 C         141.4367  138.5736  160.3696 C.ar    1  UNL1        0.0991
      7 N         142.2748  138.4154  159.1357 N.ar    1  UNL1       -0.2265
      8 N         143.5506  139.1773  159.3412 N.ar    1  UNL1       -0.1679
      9 C         143.5007  139.8063  160.7020 C.ar    1  UNL1        0.0981
     10 C         144.2584  140.6660  161.6700 C.3     1  UNL1        0.1414
     11 C         141.9027  137.6328  157.9114 C.ar    1  UNL1        0.1102
     12 C         142.8609  136.6282  157.3435 C.ar    1  UNL1        0.0214
     13 C         142.4889  135.8455  156.1191 C.ar    1  UNL1        0.0017
     14 C         141.1585  136.0675  155.4627 C.ar    1  UNL1        0.0024
     15 C         140.2002  137.0721  156.0307 C.ar    1  UNL1        0.0312
     16 C         140.5723  137.8547  157.2550 C.ar    1  UNL1        0.1577
     17 F         139.6141  138.8593  157.8229 F       1  UNL1       -0.2026
     18 C         142.0757  140.8133  167.6172 C.ar    1  UNL1        0.1061
     19 C         140.9562  141.8116  167.6160 C.ar    1  UNL1        0.0215
     20 C         140.7820  142.7417  166.4521 C.ar    1  UNL1        0.0384
     21 C         141.7275  142.6734  165.2895 C.ar    1  UNL1        0.1429
     22 C         142.8470  141.6750  165.2908 C.ar    1  UNL1        0.0888
     23 C         143.0211  140.7449  166.4547 C.ar    1  UNL1        0.0259
     24 C         142.4240  138.9530  169.9449 C.3     1  UNL1        0.1816
     25 S         142.2499  139.8831  168.7811 S.O2    1  UNL1        0.0105
     26 O         143.1180  138.9942  167.9408 O.2     1  UNL1       -0.1686
     27 O         141.3817  140.7720  169.6214 O.2     1  UNL1       -0.1686
     28 O         141.5533  143.6035  164.1256 O.3     1  UNL1       -0.4753
     29 C         140.5078  143.3193  163.0883 C.3     1  UNL1        0.2053
     30 C         139.0537  143.4341  163.4379 C.3     1  UNL1        0.0438
     31 C         137.7449  144.1589  163.3296 C.3     1  UNL1        0.0038
     32 C         137.8438  142.9081  164.1517 C.3     1  UNL1        0.0038
@<TRIPOS>BOND
     1    24    25    1
     2    25    26    2
     3    25    27    2
     4    25    18    1
     5    18    19   ar
     6    19    20   ar
     7    20    21   ar
     8    21    28    1
     9    28    29    1
    10    29    30    1
    11    30    31    1
    12    31    32    1
    13    21    22   ar
    14    22     1    1
    15     1     2    2
    16     1     3   am
    17     3     4    1
    18     4     5    1
    19     5     6   ar
    20     6     7   ar
    21     7    11    1
    22    11    12   ar
    23    12    13   ar
    24    13    14   ar
    25    14    15   ar
    26    15    16   ar
    27    16    17    1
    28     7     8   ar
    29     8     9   ar
    30     9    10    1
    31    22    23   ar
    32    23    18   ar
    33    32    30    1
    34    10     3    1
    35     9     5   ar
    36    16    11   ar
