@<TRIPOS>MOLECULE
*****
 27 29 0 0 0
SMALL
GASTEIGER

@<TRIPOS>ATOM
      1 N         139.5072  140.3335  165.9932 N.pl3   1  UNL1       -0.3034
      2 C         141.2451  142.1069  170.6531 C.2     1  UNL1        0.2257
      3 O         140.9328  141.9113  172.1071 O.2     1  UNL1       -0.2749
      4 N         140.4619  141.3646  169.6113 N.am    1  UNL1       -0.2778
      5 C         139.3439  140.3987  169.8707 C.3     1  UNL1        0.0952
      6 C         138.8502  139.8949  168.5468 C.3     1  UNL1        0.0430
      7 C         139.6631  140.5494  167.4694 C.3     1  UNL1        0.0946
      8 C         140.6592  141.4577  168.1273 C.3     1  UNL1        0.1131
      9 C         143.6946  142.5066  169.8848 C.3     1  UNL1        0.0101
     10 C         142.3407  143.0450  170.2410 C.3     1  UNL1        0.0853
     11 C         139.4489  141.5104  165.0651 C.ar    1  UNL1        0.0490
     12 C         138.1237  142.0151  164.5762 C.ar    1  UNL1        0.0153
     13 C         138.0653  143.1921  163.6481 C.ar    1  UNL1        0.0124
     14 C         139.3322  143.8644  163.2089 C.ar    1  UNL1        0.0791
     15 C         140.6576  143.3597  163.6978 C.ar    1  UNL1        0.0685
     16 CL        141.9244  144.0320  163.2586 Cl      1  UNL1       -0.0815
     17 C         140.7159  142.1827  164.6259 C.ar    1  UNL1        0.0266
     18 C         139.2739  145.0414  162.2808 C.1     1  UNL1        0.1013
     19 N         139.2156  146.2183  161.3528 N.1     1  UNL1       -0.1908
     20 C         139.4097  138.9406  165.4451 C.3     1  UNL1        0.1182
     21 C         140.0929  138.5923  164.1560 C.ar    1  UNL1        0.0038
     22 C         139.3020  138.5208  162.8835 C.ar    1  UNL1       -0.0021
     23 C         139.9853  138.1725  161.5943 C.ar    1  UNL1       -0.0002
     24 C         141.4594  137.8957  161.5777 C.ar    1  UNL1        0.0005
     25 C         142.2503  137.9672  162.8503 C.ar    1  UNL1        0.0064
     26 C         141.5671  138.3155  164.1394 C.ar    1  UNL1        0.0322
     27 BR        142.3580  138.3870  165.4120 Br      1  UNL1       -0.0493
@<TRIPOS>BOND
     1     9    10    1
     2    10     2    1
     3     2     3    2
     4     2     4   am
     5     4     5    1
     6     5     6    1
     7     6     7    1
     8     7     1    1
     9     1    20    1
    10    20    21    1
    11    21    22   ar
    12    22    23   ar
    13    23    24   ar
    14    24    25   ar
    15    25    26   ar
    16    26    27    1
    17     1    11    1
    18    11    12   ar
    19    12    13   ar
    20    13    14   ar
    21    14    18    1
    22    18    19    3
    23    14    15   ar
    24    15    16    1
    25    15    17   ar
    26     7     8    1
    27     8     4    1
    28    26    21   ar
    29    17    11   ar
@<TRIPOS>MOLECULE
*****
 27 29 0 0 0
SMALL
GASTEIGER

@<TRIPOS>ATOM
      1 N         142.5727  141.8374  165.8662 N.pl3   1  UNL1       -0.3034
      2 C         140.3948  141.9060  170.6758 C.2     1  UNL1        0.2257
      3 O         140.8157  142.1955  172.0861 O.2     1  UNL1       -0.2749
      4 N         141.3899  142.0145  169.5588 N.am    1  UNL1       -0.2778
      5 C         142.8330  142.3994  169.6979 C.3     1  UNL1        0.0952
      6 C         143.4518  142.3800  168.3315 C.3     1  UNL1        0.0430
      7 C         142.3910  141.9829  167.3481 C.3     1  UNL1        0.0946
      8 C         141.1168  141.7571  168.1065 C.3     1  UNL1        0.1131
      9 C         138.6562  140.0851  170.0339 C.3     1  UNL1        0.0101
     10 C         138.9786  141.5079  170.3827 C.3     1  UNL1        0.0853
     11 C         141.9418  142.8273  164.9324 C.ar    1  UNL1        0.0490
     12 C         142.7814  143.8888  164.2857 C.ar    1  UNL1        0.0153
     13 C         142.1506  144.8787  163.3519 C.ar    1  UNL1        0.0124
     14 C         140.6800  144.8073  163.0649 C.ar    1  UNL1        0.0791
     15 C         139.8403  143.7458  163.7116 C.ar    1  UNL1        0.0685
     16 CL        138.3698  143.6744  163.4246 Cl      1  UNL1       -0.0815
     17 C         140.4712  142.7558  164.6454 C.ar    1  UNL1        0.0266
     18 C         140.0492  145.7973  162.1311 C.1     1  UNL1        0.1013
     19 N         139.4183  146.7872  161.1973 N.1     1  UNL1       -0.1908
     20 C         143.3852  140.7019  165.3182 C.3     1  UNL1        0.1182
     21 C         142.7026  139.5435  164.6532 C.ar    1  UNL1        0.0038
     22 C         141.6834  138.7408  165.4060 C.ar    1  UNL1       -0.0021
     23 C         141.0007  137.5824  164.7410 C.ar    1  UNL1       -0.0002
     24 C         141.3372  137.2269  163.3232 C.ar    1  UNL1        0.0005
     25 C         142.3564  138.0297  162.5703 C.ar    1  UNL1        0.0064
     26 C         143.0391  139.1880  163.2353 C.ar    1  UNL1        0.0322
     27 BR        144.0582  139.9908  162.4824 Br      1  UNL1       -0.0493
@<TRIPOS>BOND
     1     9    10    1
     2    10     2    1
     3     2     3    2
     4     2     4   am
     5     4     5    1
     6     5     6    1
     7     6     7    1
     8     7     1    1
     9     1    20    1
    10    20    21    1
    11    21    22   ar
    12    22    23   ar
    13    23    24   ar
    14    24    25   ar
    15    25    26   ar
    16    26    27    1
    17     1    11    1
    18    11    12   ar
    19    12    13   ar
    20    13    14   ar
    21    14    18    1
    22    18    19    3
    23    14    15   ar
    24    15    16    1
    25    15    17   ar
    26     7     8    1
    27     8     4    1
    28    26    21   ar
    29    17    11   ar
@<TRIPOS>MOLECULE
*****
 27 29 0 0 0
SMALL
GASTEIGER

@<TRIPOS>ATOM
      1 N         142.5100  140.4310  165.7891 N.pl3   1  UNL1       -0.3034
      2 C         140.5998  141.5119  170.5915 C.2     1  UNL1        0.2257
      3 O         140.6748  140.9393  171.9759 O.2     1  UNL1       -0.2749
      4 N         141.3368  140.8501  169.4652 N.am    1  UNL1       -0.2778
      5 C         142.1844  139.6169  169.5703 C.3     1  UNL1        0.0952
      6 C         142.7271  139.3099  168.2059 C.3     1  UNL1        0.0430
      7 C         142.2148  140.3533  167.2578 C.3     1  UNL1        0.0946
      8 C         141.3556  141.3051  168.0360 C.3     1  UNL1        0.1131
      9 C         140.4721  144.0375  169.9957 C.3     1  UNL1        0.0101
     10 C         139.7876  142.7464  170.3337 C.3     1  UNL1        0.0853
     11 C         141.9011  141.5216  164.9585 C.ar    1  UNL1        0.0490
     12 C         140.5636  141.3140  164.3121 C.ar    1  UNL1        0.0153
     13 C         139.9547  142.4045  163.4814 C.ar    1  UNL1        0.0124
     14 C         140.6832  143.7026  163.2972 C.ar    1  UNL1        0.0791
     15 C         142.0208  143.9103  163.9436 C.ar    1  UNL1        0.0685
     16 CL        142.7494  145.2084  163.7594 Cl      1  UNL1       -0.0815
     17 C         142.6298  142.8197  164.7743 C.ar    1  UNL1        0.0266
     18 C         140.0743  144.7931  162.4666 C.1     1  UNL1        0.1013
     19 N         139.4654  145.8836  161.6359 N.1     1  UNL1       -0.1908
     20 C         143.4141  139.4183  165.1512 C.3     1  UNL1        0.1182
     21 C         143.2552  139.0808  163.6984 C.ar    1  UNL1        0.0038
     22 C         144.1638  139.7032  162.6800 C.ar    1  UNL1       -0.0021
     23 C         144.0049  139.3657  161.2272 C.ar    1  UNL1       -0.0002
     24 C         142.9375  138.4057  160.7926 C.ar    1  UNL1        0.0005
     25 C         142.0288  137.7832  161.8110 C.ar    1  UNL1        0.0064
     26 C         142.1877  138.1208  163.2638 C.ar    1  UNL1        0.0322
     27 BR        141.2791  137.4983  164.2821 Br      1  UNL1       -0.0493
@<TRIPOS>BOND
     1     9    10    1
     2    10     2    1
     3     2     3    2
     4     2     4   am
     5     4     5    1
     6     5     6    1
     7     6     7    1
     8     7     1    1
     9     1    20    1
    10    20    21    1
    11    21    22   ar
    12    22    23   ar
    13    23    24   ar
    14    24    25   ar
    15    25    26   ar
    16    26    27    1
    17     1    11    1
    18    11    12   ar
    19    12    13   ar
    20    13    14   ar
    21    14    18    1
    22    18    19    3
    23    14    15   ar
    24    15    16    1
    25    15    17   ar
    26     7     8    1
    27     8     4    1
    28    26    21   ar
    29    17    11   ar
@<TRIPOS>MOLECULE
*****
 27 29 0 0 0
SMALL
GASTEIGER

@<TRIPOS>ATOM
      1 N         141.4383  140.2975  165.4434 N.pl3   1  UNL1       -0.3034
      2 C         141.0212  141.7350  170.5070 C.2     1  UNL1        0.2257
      3 O         141.6342  141.3648  171.8250 O.2     1  UNL1       -0.2749
      4 N         141.4577  141.0355  169.2540 N.am    1  UNL1       -0.2778
      5 C         142.4908  139.9517  169.1635 C.3     1  UNL1        0.0952
      6 C         142.6092  139.5433  167.7249 C.3     1  UNL1        0.0430
      7 C         141.6494  140.3748  166.9265 C.3     1  UNL1        0.0946
      8 C         140.9377  141.2970  167.8715 C.3     1  UNL1        0.1131
      9 C         140.3425  144.1944  170.0164 C.3     1  UNL1        0.0101
     10 C         139.9718  142.8048  170.4422 C.3     1  UNL1        0.0853
     11 C         141.0347  141.5231  164.6785 C.ar    1  UNL1        0.0490
     12 C         142.0759  142.3526  163.9874 C.ar    1  UNL1        0.0153
     13 C         141.6723  143.5781  163.2224 C.ar    1  UNL1        0.0124
     14 C         140.2275  143.9741  163.1486 C.ar    1  UNL1        0.0791
     15 C         139.1861  143.1446  163.8397 C.ar    1  UNL1        0.0685
     16 CL        137.7413  143.5406  163.7658 Cl      1  UNL1       -0.0815
     17 C         139.5897  141.9191  164.6046 C.ar    1  UNL1        0.0266
     18 C         139.8239  145.1997  162.3836 C.1     1  UNL1        0.1013
     19 N         139.4202  146.4252  161.6187 N.1     1  UNL1       -0.1908
     20 C         141.6308  138.9948  164.7253 C.3     1  UNL1        0.1182
     21 C         140.7916  138.6684  163.5256 C.ar    1  UNL1        0.0038
     22 C         141.3278  138.9132  162.1463 C.ar    1  UNL1       -0.0021
     23 C         140.4886  138.5869  160.9466 C.ar    1  UNL1       -0.0002
     24 C         139.1132  138.0158  161.1262 C.ar    1  UNL1        0.0005
     25 C         138.5770  137.7711  162.5056 C.ar    1  UNL1        0.0064
     26 C         139.4162  138.0974  163.7053 C.ar    1  UNL1        0.0322
     27 BR        138.8801  137.8526  165.0847 Br      1  UNL1       -0.0493
@<TRIPOS>BOND
     1     9    10    1
     2    10     2    1
     3     2     3    2
     4     2     4   am
     5     4     5    1
     6     5     6    1
     7     6     7    1
     8     7     1    1
     9     1    20    1
    10    20    21    1
    11    21    22   ar
    12    22    23   ar
    13    23    24   ar
    14    24    25   ar
    15    25    26   ar
    16    26    27    1
    17     1    11    1
    18    11    12   ar
    19    12    13   ar
    20    13    14   ar
    21    14    18    1
    22    18    19    3
    23    14    15   ar
    24    15    16    1
    25    15    17   ar
    26     7     8    1
    27     8     4    1
    28    26    21   ar
    29    17    11   ar
@<TRIPOS>MOLECULE
*****
 27 29 0 0 0
SMALL
GASTEIGER

@<TRIPOS>ATOM
      1 N         141.8583  139.3437  165.4894 N.pl3   1  UNL1       -0.3034
      2 C         138.0326  139.6403  161.8622 C.2     1  UNL1        0.2257
      3 O         137.0106  138.7335  161.2432 O.2     1  UNL1       -0.2749
      4 N         138.9672  139.1124  162.9099 N.am    1  UNL1       -0.2778
      5 C         138.9983  137.7084  163.4370 C.3     1  UNL1        0.0952
      6 C         140.0852  137.6241  164.4675 C.3     1  UNL1        0.0430
      7 C         140.7256  138.9761  164.5772 C.3     1  UNL1        0.0946
      8 C         140.0347  139.8959  163.6146 C.3     1  UNL1        0.1131
      9 C         137.6902  142.1653  162.3694 C.3     1  UNL1        0.0101
     10 C         138.1200  141.0750  161.4332 C.3     1  UNL1        0.0853
     11 C         141.5732  139.9272  166.8415 C.ar    1  UNL1        0.0490
     12 C         140.1671  139.9599  167.3629 C.ar    1  UNL1        0.0153
     13 C         139.8820  140.5434  168.7150 C.ar    1  UNL1        0.0124
     14 C         141.0030  141.0941  169.5458 C.ar    1  UNL1        0.0791
     15 C         142.4091  141.0614  169.0244 C.ar    1  UNL1        0.0685
     16 CL        143.5301  141.6121  169.8551 Cl      1  UNL1       -0.0815
     17 C         142.6942  140.4779  167.6722 C.ar    1  UNL1        0.0266
     18 C         140.7179  141.6776  170.8979 C.1     1  UNL1        0.1013
     19 N         140.4328  142.2611  172.2500 N.1     1  UNL1       -0.1908
     20 C         143.2760  139.1277  165.0495 C.3     1  UNL1        0.1182
     21 C         143.9184  140.0870  164.0918 C.ar    1  UNL1        0.0038
     22 C         144.4784  141.3851  164.5930 C.ar    1  UNL1       -0.0021
     23 C         145.1209  142.3443  163.6354 C.ar    1  UNL1       -0.0002
     24 C         145.2034  142.0054  162.1765 C.ar    1  UNL1        0.0005
     25 C         144.6435  140.7072  161.6752 C.ar    1  UNL1        0.0064
     26 C         144.0010  139.7480  162.6329 C.ar    1  UNL1        0.0322
     27 BR        143.4411  138.4498  162.1317 Br      1  UNL1       -0.0493
@<TRIPOS>BOND
     1     9    10    1
     2    10     2    1
     3     2     3    2
     4     2     4   am
     5     4     5    1
     6     5     6    1
     7     6     7    1
     8     7     1    1
     9     1    20    1
    10    20    21    1
    11    21    22   ar
    12    22    23   ar
    13    23    24   ar
    14    24    25   ar
    15    25    26   ar
    16    26    27    1
    17     1    11    1
    18    11    12   ar
    19    12    13   ar
    20    13    14   ar
    21    14    18    1
    22    18    19    3
    23    14    15   ar
    24    15    16    1
    25    15    17   ar
    26     7     8    1
    27     8     4    1
    28    26    21   ar
    29    17    11   ar
@<TRIPOS>MOLECULE
*****
 27 29 0 0 0
SMALL
GASTEIGER

@<TRIPOS>ATOM
      1 N         139.6508  140.3476  165.9029 N.pl3   1  UNL1       -0.3034
      2 C         141.1670  142.1521  170.6279 C.2     1  UNL1        0.2257
      3 O         140.7897  141.9624  172.0672 O.2     1  UNL1       -0.2749
      4 N         140.4353  141.4011  169.5554 N.am    1  UNL1       -0.2778
      5 C         139.3108  140.4315  169.7686 C.3     1  UNL1        0.0952
      6 C         138.8800  139.9188  168.4262 C.3     1  UNL1        0.0430
      7 C         139.7383  140.5716  167.3836 C.3     1  UNL1        0.0946
      8 C         140.6995  141.4877  168.0814 C.3     1  UNL1        0.1131
      9 C         143.6629  142.5669  170.0375 C.3     1  UNL1        0.0101
     10 C         142.2763  143.0930  170.2612 C.3     1  UNL1        0.0853
     11 C         140.8047  140.7177  165.0189 C.ar    1  UNL1        0.0490
     12 C         140.8734  142.0862  164.4088 C.ar    1  UNL1        0.0153
     13 C         142.0273  142.4563  163.5248 C.ar    1  UNL1        0.0124
     14 C         143.1126  141.4578  163.2509 C.ar    1  UNL1        0.0791
     15 C         143.0440  140.0891  163.8609 C.ar    1  UNL1        0.0685
     16 CL        144.1292  139.0906  163.5870 Cl      1  UNL1       -0.0815
     17 C         141.8900  139.7191  164.7450 C.ar    1  UNL1        0.0266
     18 C         144.2665  141.8279  162.3668 C.1     1  UNL1        0.1013
     19 N         145.4204  142.1979  161.4828 N.1     1  UNL1       -0.1908
     20 C         138.4093  139.7536  165.3064 C.3     1  UNL1        0.1182
     21 C         138.3360  139.4949  163.8307 C.ar    1  UNL1        0.0038
     22 C         138.7985  138.1803  163.2758 C.ar    1  UNL1       -0.0021
     23 C         138.7252  137.9215  161.8001 C.ar    1  UNL1       -0.0002
     24 C         138.1895  138.9774  160.8793 C.ar    1  UNL1        0.0005
     25 C         137.7270  140.2922  161.4341 C.ar    1  UNL1        0.0064
     26 C         137.8003  140.5509  162.9098 C.ar    1  UNL1        0.0322
     27 BR        137.3379  141.8655  163.4646 Br      1  UNL1       -0.0493
@<TRIPOS>BOND
     1     9    10    1
     2    10     2    1
     3     2     3    2
     4     2     4   am
     5     4     5    1
     6     5     6    1
     7     6     7    1
     8     7     1    1
     9     1    20    1
    10    20    21    1
    11    21    22   ar
    12    22    23   ar
    13    23    24   ar
    14    24    25   ar
    15    25    26   ar
    16    26    27    1
    17     1    11    1
    18    11    12   ar
    19    12    13   ar
    20    13    14   ar
    21    14    18    1
    22    18    19    3
    23    14    15   ar
    24    15    16    1
    25    15    17   ar
    26     7     8    1
    27     8     4    1
    28    26    21   ar
    29    17    11   ar
@<TRIPOS>MOLECULE
*****
 27 29 0 0 0
SMALL
GASTEIGER

@<TRIPOS>ATOM
      1 N         142.4181  140.1694  165.8713 N.pl3   1  UNL1       -0.3034
      2 C         140.6502  141.5578  170.6491 C.2     1  UNL1        0.2257
      3 O         140.7781  141.0832  172.0663 O.2     1  UNL1       -0.2749
      4 N         141.3593  140.8282  169.5470 N.am    1  UNL1       -0.2778
      5 C         142.2268  139.6151  169.7083 C.3     1  UNL1        0.0952
      6 C         142.7290  139.2207  168.3509 C.3     1  UNL1        0.0430
      7 C         142.1719  140.1900  167.3509 C.3     1  UNL1        0.0946
      8 C         141.3254  141.1835  168.0901 C.3     1  UNL1        0.1131
      9 C         140.4717  144.0515  169.9423 C.3     1  UNL1        0.0101
     10 C         139.8132  142.7621  170.3342 C.3     1  UNL1        0.0853
     11 C         141.3323  139.7256  164.9364 C.ar    1  UNL1        0.0490
     12 C         141.4836  138.4492  164.1632 C.ar    1  UNL1        0.0153
     13 C         140.3978  138.0054  163.2284 C.ar    1  UNL1        0.0124
     14 C         139.1606  138.8380  163.0667 C.ar    1  UNL1        0.0791
     15 C         139.0093  140.1145  163.8399 C.ar    1  UNL1        0.0685
     16 CL        137.7721  140.9470  163.6782 Cl      1  UNL1       -0.0815
     17 C         140.0951  140.5583  164.7748 C.ar    1  UNL1        0.0266
     18 C         138.0748  138.3942  162.1318 C.1     1  UNL1        0.1013
     19 N         136.9890  137.9504  161.1969 N.1     1  UNL1       -0.1908
     20 C         143.7501  140.5926  165.3267 C.3     1  UNL1        0.1182
     21 C         143.8646  141.8516  164.5192 C.ar    1  UNL1        0.0038
     22 C         143.6553  143.1845  165.1745 C.ar    1  UNL1       -0.0021
     23 C         143.7697  144.4434  164.3670 C.ar    1  UNL1       -0.0002
     24 C         144.0935  144.3694  162.9043 C.ar    1  UNL1        0.0005
     25 C         144.3028  143.0364  162.2489 C.ar    1  UNL1        0.0064
     26 C         144.1883  141.7775  163.0564 C.ar    1  UNL1        0.0322
     27 BR        144.3976  140.4445  162.4012 Br      1  UNL1       -0.0493
@<TRIPOS>BOND
     1     9    10    1
     2    10     2    1
     3     2     3    2
     4     2     4   am
     5     4     5    1
     6     5     6    1
     7     6     7    1
     8     7     1    1
     9     1    20    1
    10    20    21    1
    11    21    22   ar
    12    22    23   ar
    13    23    24   ar
    14    24    25   ar
    15    25    26   ar
    16    26    27    1
    17     1    11    1
    18    11    12   ar
    19    12    13   ar
    20    13    14   ar
    21    14    18    1
    22    18    19    3
    23    14    15   ar
    24    15    16    1
    25    15    17   ar
    26     7     8    1
    27     8     4    1
    28    26    21   ar
    29    17    11   ar
@<TRIPOS>MOLECULE
*****
 27 29 0 0 0
SMALL
GASTEIGER

@<TRIPOS>ATOM
      1 N         142.7262  141.3507  165.0295 N.pl3   1  UNL1       -0.3034
      2 C         139.5468  144.1203  161.8513 C.2     1  UNL1        0.2257
      3 O         139.6736  145.1692  160.7865 O.2     1  UNL1       -0.2749
      4 N         140.7743  143.5864  162.5280 N.am    1  UNL1       -0.2778
      5 C         142.1877  144.0030  162.2472 C.3     1  UNL1        0.0952
      6 C         143.0909  143.2162  163.1502 C.3     1  UNL1        0.0430
      7 C         142.2357  142.3133  163.9889 C.3     1  UNL1        0.0946
      8 C         140.8040  142.5421  163.6044 C.3     1  UNL1        0.1131
      9 C         137.5838  144.0084  163.5495 C.3     1  UNL1        0.0101
     10 C         138.1924  143.6054  162.2392 C.3     1  UNL1        0.0853
     11 C         142.2770  141.4925  166.4536 C.ar    1  UNL1        0.0490
     12 C         143.0938  142.2966  167.4211 C.ar    1  UNL1        0.0153
     13 C         142.6445  142.4384  168.8452 C.ar    1  UNL1        0.0124
     14 C         141.3785  141.7761  169.3018 C.ar    1  UNL1        0.0791
     15 C         140.5616  140.9719  168.3342 C.ar    1  UNL1        0.0685
     16 CL        139.2956  140.3096  168.7907 Cl      1  UNL1       -0.0815
     17 C         141.0109  140.8301  166.9101 C.ar    1  UNL1        0.0266
     18 C         140.9292  141.9179  170.7259 C.1     1  UNL1        0.1013
     19 N         140.4799  142.0597  172.1500 N.1     1  UNL1       -0.1908
     20 C         143.6660  140.2462  164.6459 C.3     1  UNL1        0.1182
     21 C         143.4514  139.4884  163.3693 C.ar    1  UNL1        0.0038
     22 C         144.2363  139.8480  162.1427 C.ar    1  UNL1       -0.0021
     23 C         144.0217  139.0902  160.8661 C.ar    1  UNL1       -0.0002
     24 C         143.0224  137.9727  160.8162 C.ar    1  UNL1        0.0005
     25 C         142.2375  137.6131  162.0428 C.ar    1  UNL1        0.0064
     26 C         142.4520  138.3709  163.3194 C.ar    1  UNL1        0.0322
     27 BR        141.6672  138.0113  164.5460 Br      1  UNL1       -0.0493
@<TRIPOS>BOND
     1     9    10    1
     2    10     2    1
     3     2     3    2
     4     2     4   am
     5     4     5    1
     6     5     6    1
     7     6     7    1
     8     7     1    1
     9     1    20    1
    10    20    21    1
    11    21    22   ar
    12    22    23   ar
    13    23    24   ar
    14    24    25   ar
    15    25    26   ar
    16    26    27    1
    17     1    11    1
    18    11    12   ar
    19    12    13   ar
    20    13    14   ar
    21    14    18    1
    22    18    19    3
    23    14    15   ar
    24    15    16    1
    25    15    17   ar
    26     7     8    1
    27     8     4    1
    28    26    21   ar
    29    17    11   ar
@<TRIPOS>MOLECULE
*****
 27 29 0 0 0
SMALL
GASTEIGER

@<TRIPOS>ATOM
      1 N         140.6743  139.1878  164.5064 N.pl3   1  UNL1       -0.3034
      2 C         139.0795  140.2382  169.4291 C.2     1  UNL1        0.2257
      3 O         137.8978  139.9436  170.3048 O.2     1  UNL1       -0.2749
      4 N         139.1201  139.7160  168.0236 N.am    1  UNL1       -0.2778
      5 C         138.0590  138.8899  167.3590 C.3     1  UNL1        0.0952
      6 C         138.5121  138.5915  165.9604 C.3     1  UNL1        0.0430
      7 C         139.8532  139.2331  165.7609 C.3     1  UNL1        0.0946
      8 C         140.2289  139.9281  167.0360 C.3     1  UNL1        0.1131
      9 C         140.1970  142.5491  169.8297 C.3     1  UNL1        0.0101
     10 C         140.2205  141.0550  169.9591 C.3     1  UNL1        0.0853
     11 C         140.0258  139.4332  163.1763 C.ar    1  UNL1        0.0490
     12 C         139.8382  138.2990  162.2127 C.ar    1  UNL1        0.0153
     13 C         139.1897  138.5444  160.8826 C.ar    1  UNL1        0.0124
     14 C         138.7287  139.9239  160.5160 C.ar    1  UNL1        0.0791
     15 C         138.9163  141.0581  161.4796 C.ar    1  UNL1        0.0685
     16 CL        138.4554  142.4377  161.1130 Cl      1  UNL1       -0.0815
     17 C         139.5648  140.8128  162.8097 C.ar    1  UNL1        0.0266
     18 C         138.0802  140.1693  159.1859 C.1     1  UNL1        0.1013
     19 N         137.4317  140.4146  157.8558 N.1     1  UNL1       -0.1908
     20 C         142.1439  138.8970  164.5820 C.3     1  UNL1        0.1182
     21 C         143.1384  139.9623  164.2268 C.ar    1  UNL1        0.0038
     22 C         143.3507  141.1272  165.1476 C.ar    1  UNL1       -0.0021
     23 C         144.3453  142.1924  164.7923 C.ar    1  UNL1       -0.0002
     24 C         145.1275  142.0927  163.5164 C.ar    1  UNL1        0.0005
     25 C         144.9152  140.9278  162.5956 C.ar    1  UNL1        0.0064
     26 C         143.9207  139.8625  162.9508 C.ar    1  UNL1        0.0322
     27 BR        143.7084  138.6976  162.0300 Br      1  UNL1       -0.0493
@<TRIPOS>BOND
     1     9    10    1
     2    10     2    1
     3     2     3    2
     4     2     4   am
     5     4     5    1
     6     5     6    1
     7     6     7    1
     8     7     1    1
     9     1    20    1
    10    20    21    1
    11    21    22   ar
    12    22    23   ar
    13    23    24   ar
    14    24    25   ar
    15    25    26   ar
    16    26    27    1
    17     1    11    1
    18    11    12   ar
    19    12    13   ar
    20    13    14   ar
    21    14    18    1
    22    18    19    3
    23    14    15   ar
    24    15    16    1
    25    15    17   ar
    26     7     8    1
    27     8     4    1
    28    26    21   ar
    29    17    11   ar
