@<TRIPOS>MOLECULE
*****
 44 49 0 0 0
SMALL
GASTEIGER

@<TRIPOS>ATOM
      1 C         138.6672  141.5422  159.6874 C.3     1  UNL1        0.0546
      2 C         138.2554  140.1525  159.3013 C.3     1  UNL1        0.0180
      3 C         139.4116  139.5047  158.5989 C.3     1  UNL1        0.0311
      4 C         139.8717  138.2455  157.9261 C.3     1  UNL1        0.0973
      5 N         141.2826  138.4566  157.4623 N.am    1  UNL1       -0.2455
      6 C         142.1323  137.4539  156.7393 C.2     1  UNL1        0.4049
      7 O         143.5327  137.8094  156.3363 O.2     1  UNL1       -0.2262
      8 C         141.6944  139.8463  157.8484 C.3     1  UNL1        0.1053
      9 C         140.5381  140.4941  158.5509 C.3     1  UNL1        0.0903
     10 C         140.0780  141.7533  159.2236 C.3     1  UNL1        0.0261
     11 C         141.6646  141.4834  158.5029 C.2     1  UNL1        0.2267
     12 O         141.7922  142.4187  157.3371 O.2     1  UNL1       -0.2748
     13 N         142.6634  141.5375  159.6207 N.am    1  UNL1       -0.2750
     14 C         143.7899  142.5268  159.5727 C.3     1  UNL1        0.1000
     15 C         144.7887  142.5809  160.6904 C.3     1  UNL1        0.0670
     16 C         144.6610  141.6456  161.8562 C.ar    1  UNL1        0.0583
     17 N         145.6599  141.6997  162.9740 N.ar    1  UNL1       -0.2484
     18 C         145.5323  140.7645  164.1397 C.ar    1  UNL1        0.1023
     19 C         144.4058  139.7751  164.1877 C.ar    1  UNL1        0.0902
     20 C         143.4070  139.7210  163.0699 C.ar    1  UNL1        0.0040
     21 C         143.5346  140.6563  161.9042 C.ar    1  UNL1        0.0113
     22 C         142.5358  140.6022  160.7864 C.3     1  UNL1        0.1213
     23 C         144.2782  138.8398  165.3534 C.3     1  UNL1        0.4200
     24 F         144.1505  137.9045  166.5192 F       1  UNL1       -0.1658
     25 F         145.7555  138.5835  165.3095 F       1  UNL1       -0.1658
     26 F         142.8009  139.0961  165.3973 F       1  UNL1       -0.1658
     27 N         137.8175  142.5449  160.4104 N.3     1  UNL1       -0.2975
     28 H         137.9606  143.4417  159.9459 H       1  UNL1        0.1232
     29 C         138.6983  144.0317  162.3504 C.3     1  UNL1        0.1591
     30 C         138.9006  144.2669  163.8179 C.3     1  UNL1        0.1729
     31 O         138.4244  143.2507  164.8131 O.3     1  UNL1       -0.3511
     32 C         137.7458  141.9990  164.3407 C.3     1  UNL1        0.1437
     33 C         137.5435  141.7638  162.8731 C.3     1  UNL1        0.0503
     34 C         138.0198  142.7801  161.8780 C.3     1  UNL1        0.0865
     35 C         139.8355  146.3086  161.8285 C.3     1  UNL1        0.1742
     36 O         139.1745  145.0479  161.3552 O.3     1  UNL1       -0.3496
     37 O         141.5817  136.0958  156.4194 O.3     1  UNL1       -0.4330
     38 C         142.5141  134.9440  156.1876 C.3     1  UNL1        0.2274
     39 C         143.3809  134.4440  157.3051 C.3     1  UNL1        0.1202
     40 N         143.7361  132.9889  157.3853 N.3     1  UNL1       -0.2696
     41 C         144.9989  132.4201  157.9611 C.3     1  UNL1        0.0722
     42 C         144.9342  130.9268  157.8354 C.3     1  UNL1        0.0188
     43 C         143.6314  130.5727  157.1818 C.3     1  UNL1        0.0188
     44 C         142.8909  131.8471  156.9036 C.3     1  UNL1        0.0722
@<TRIPOS>BOND
     1    35    36    1
     2    36    29    1
     3    29    30    1
     4    30    31    1
     5    31    32    1
     6    32    33    1
     7    33    34    1
     8    34    27    1
     9     1    27    1
    10     1     2    1
    11     3     2    1
    12     3     4    1
    13     4     5    1
    14     5     6   am
    15     6     7    2
    16     6    37    1
    17    37    38    1
    18    38    39    1
    19    39    40    1
    20    40    41    1
    21    41    42    1
    22    42    43    1
    23    43    44    1
    24     5     8    1
    25     8     9    1
    26     9    11    1
    27    11    12    2
    28    11    13   am
    29    13    14    1
    30    14    15    1
    31    15    16    1
    32    16    17   ar
    33    17    18   ar
    34    18    19   ar
    35    19    23    1
    36    23    24    1
    37    23    25    1
    38    23    26    1
    39    19    20   ar
    40    20    21   ar
    41    21    22    1
    42     9    10    1
    43    34    29    1
    44    10     1    1
    45     9     3    1
    46    22    13    1
    47    44    40    1
    48    21    16   ar
    49    27    28    1
@<TRIPOS>MOLECULE
*****
 44 49 0 0 0
SMALL
GASTEIGER

@<TRIPOS>ATOM
      1 C         138.1702  140.6374  156.9342 C.3     1  UNL1        0.0546
      2 C         137.8579  142.0425  157.3562 C.3     1  UNL1        0.0180
      3 C         139.0063  142.5454  158.1797 C.3     1  UNL1        0.0311
      4 C         139.5231  143.7246  158.9494 C.3     1  UNL1        0.0973
      5 N         140.8646  143.3590  159.5121 N.am    1  UNL1       -0.2455
      6 C         141.7401  144.2434  160.3498 C.2     1  UNL1        0.4049
      7 O         143.0630  143.7379  160.8439 O.2     1  UNL1       -0.2262
      8 C         141.1770  141.9539  159.0902 C.3     1  UNL1        0.1053
      9 C         140.0285  141.4511  158.2667 C.3     1  UNL1        0.0903
     10 C         139.5118  140.2719  157.4969 C.3     1  UNL1        0.0261
     11 C         141.0507  140.3567  158.3537 C.2     1  UNL1        0.2267
     12 O         141.9865  140.1117  157.2073 O.2     1  UNL1       -0.2748
     13 N         141.1371  139.5074  159.5871 N.am    1  UNL1       -0.2750
     14 C         142.1593  138.4131  159.6741 C.3     1  UNL1        0.1000
     15 C         142.2456  137.5639  160.9075 C.3     1  UNL1        0.0670
     16 C         141.3098  137.8089  162.0539 C.ar    1  UNL1        0.0583
     17 N         141.3963  136.9596  163.2873 N.ar    1  UNL1       -0.2484
     18 C         140.4605  137.2047  164.4337 C.ar    1  UNL1        0.1023
     19 C         139.4383  138.2991  164.3467 C.ar    1  UNL1        0.0902
     20 C         139.3519  139.1483  163.1133 C.ar    1  UNL1        0.0040
     21 C         140.2877  138.9033  161.9669 C.ar    1  UNL1        0.0113
     22 C         140.2013  139.7525  160.7335 C.3     1  UNL1        0.1213
     23 C         138.5025  138.5442  165.4931 C.3     1  UNL1        0.4200
     24 F         137.5667  138.7892  166.6395 F       1  UNL1       -0.1658
     25 F         138.7084  140.0226  165.3451 F       1  UNL1       -0.1658
     26 F         138.2965  137.0658  165.6410 F       1  UNL1       -0.1658
     27 N         137.2948  139.7531  156.0966 N.3     1  UNL1       -0.2975
     28 H         137.9004  139.3063  155.4081 H       1  UNL1        0.1232
     29 C         134.7760  140.3762  155.9649 C.3     1  UNL1        0.1591
     30 C         133.6208  140.9633  155.2094 C.3     1  UNL1        0.1729
     31 O         133.8292  141.5143  153.8300 O.3     1  UNL1       -0.3511
     32 C         135.1928  141.4783  153.2060 C.3     1  UNL1        0.1437
     33 C         136.3480  140.8912  153.9615 C.3     1  UNL1        0.0503
     34 C         136.1396  140.3402  155.3411 C.3     1  UNL1        0.0865
     35 C         133.2192  139.3076  157.7495 C.3     1  UNL1        0.1742
     36 O         134.5676  139.8252  157.3444 O.3     1  UNL1       -0.3496
     37 O         141.2925  145.6333  160.6932 O.3     1  UNL1       -0.4330
     38 C         140.6187  145.9012  162.0062 C.3     1  UNL1        0.2274
     39 C         139.1312  145.7522  162.1300 C.3     1  UNL1        0.1202
     40 N         138.5533  144.5731  162.8550 N.3     1  UNL1       -0.2696
     41 C         138.3628  144.4570  164.3383 C.3     1  UNL1        0.0722
     42 C         137.7561  143.1152  164.6241 C.3     1  UNL1        0.0188
     43 C         137.5717  142.4021  163.3174 C.3     1  UNL1        0.0188
     44 C         138.0643  143.3031  162.2241 C.3     1  UNL1        0.0722
@<TRIPOS>BOND
     1    35    36    1
     2    36    29    1
     3    29    30    1
     4    30    31    1
     5    31    32    1
     6    32    33    1
     7    33    34    1
     8    34    27    1
     9     1    27    1
    10     1     2    1
    11     3     2    1
    12     3     4    1
    13     4     5    1
    14     5     6   am
    15     6     7    2
    16     6    37    1
    17    37    38    1
    18    38    39    1
    19    39    40    1
    20    40    41    1
    21    41    42    1
    22    42    43    1
    23    43    44    1
    24     5     8    1
    25     8     9    1
    26     9    11    1
    27    11    12    2
    28    11    13   am
    29    13    14    1
    30    14    15    1
    31    15    16    1
    32    16    17   ar
    33    17    18   ar
    34    18    19   ar
    35    19    23    1
    36    23    24    1
    37    23    25    1
    38    23    26    1
    39    19    20   ar
    40    20    21   ar
    41    21    22    1
    42     9    10    1
    43    34    29    1
    44    10     1    1
    45     9     3    1
    46    22    13    1
    47    44    40    1
    48    21    16   ar
    49    27    28    1
@<TRIPOS>MOLECULE
*****
 44 49 0 0 0
SMALL
GASTEIGER

@<TRIPOS>ATOM
      1 C         138.2189  140.0281  159.8482 C.3     1  UNL1        0.0546
      2 C         137.8692  141.1399  158.9039 C.3     1  UNL1        0.0180
      3 C         139.0196  141.3246  157.9592 C.3     1  UNL1        0.0311
      4 C         139.5145  142.1259  156.7917 C.3     1  UNL1        0.0973
      5 N         140.8810  141.6236  156.4307 N.am    1  UNL1       -0.2455
      6 C         141.7460  142.1420  155.3202 C.2     1  UNL1        0.4049
      7 O         143.0970  141.5373  155.0771 O.2     1  UNL1       -0.2262
      8 C         141.2307  140.5119  157.3750 C.3     1  UNL1        0.1053
      9 C         140.0803  140.3271  158.3197 C.3     1  UNL1        0.0903
     10 C         139.5854  139.5258  159.4872 C.3     1  UNL1        0.0261
     11 C         141.1409  139.3296  158.6802 C.2     1  UNL1        0.2267
     12 O         141.1866  137.9999  157.9874 O.2     1  UNL1       -0.2748
     13 N         142.1559  139.6616  159.7336 N.am    1  UNL1       -0.2750
     14 C         143.2165  138.6641  160.0941 C.3     1  UNL1        0.1000
     15 C         144.2314  138.9962  161.1474 C.3     1  UNL1        0.0670
     16 C         144.1858  140.3258  161.8403 C.ar    1  UNL1        0.0583
     17 N         145.2008  140.6579  162.8937 N.ar    1  UNL1       -0.2484
     18 C         145.1551  141.9875  163.5865 C.ar    1  UNL1        0.1023
     19 C         144.0944  142.9851  163.2260 C.ar    1  UNL1        0.0902
     20 C         143.0795  142.6530  162.1726 C.ar    1  UNL1        0.0040
     21 C         143.1251  141.3234  161.4798 C.ar    1  UNL1        0.0113
     22 C         142.1102  140.9913  160.4264 C.3     1  UNL1        0.1213
     23 C         144.0487  144.3147  163.9188 C.3     1  UNL1        0.4200
     24 F         144.0030  145.6443  164.6116 F       1  UNL1       -0.1658
     25 F         144.7386  143.7179  165.1095 F       1  UNL1       -0.1658
     26 F         143.3588  144.9115  162.7281 F       1  UNL1       -0.1658
     27 N         137.3539  139.5097  160.9587 N.3     1  UNL1       -0.2975
     28 H         136.5372  140.1190  161.0048 H       1  UNL1        0.1232
     29 C         137.7531  140.5669  163.2981 C.3     1  UNL1        0.1591
     30 C         138.2999  140.4695  164.6915 C.3     1  UNL1        0.1729
     31 O         138.9940  139.2173  165.1390 O.3     1  UNL1       -0.3511
     32 C         139.1415  138.0626  164.1930 C.3     1  UNL1        0.1437
     33 C         138.5948  138.1600  162.7996 C.3     1  UNL1        0.0503
     34 C         137.9006  139.4122  162.3521 C.3     1  UNL1        0.0865
     35 C         137.8623  142.9912  162.3701 C.3     1  UNL1        0.1742
     36 O         137.0590  141.8191  162.8507 O.3     1  UNL1       -0.3496
     37 O         141.2599  143.2651  154.4528 O.3     1  UNL1       -0.4330
     38 C         141.5902  144.6843  154.8084 C.3     1  UNL1        0.2274
     39 C         142.4003  144.9810  156.0356 C.3     1  UNL1        0.1202
     40 N         141.7445  144.9837  157.3846 N.3     1  UNL1       -0.2696
     41 C         142.1935  144.2040  158.5848 C.3     1  UNL1        0.0722
     42 C         141.2511  144.5049  159.7122 C.3     1  UNL1        0.0188
     43 C         140.2195  145.4706  159.2088 C.3     1  UNL1        0.0188
     44 C         140.5244  145.7665  157.7703 C.3     1  UNL1        0.0722
@<TRIPOS>BOND
     1    35    36    1
     2    36    29    1
     3    29    30    1
     4    30    31    1
     5    31    32    1
     6    32    33    1
     7    33    34    1
     8    34    27    1
     9     1    27    1
    10     1     2    1
    11     3     2    1
    12     3     4    1
    13     4     5    1
    14     5     6   am
    15     6     7    2
    16     6    37    1
    17    37    38    1
    18    38    39    1
    19    39    40    1
    20    40    41    1
    21    41    42    1
    22    42    43    1
    23    43    44    1
    24     5     8    1
    25     8     9    1
    26     9    11    1
    27    11    12    2
    28    11    13   am
    29    13    14    1
    30    14    15    1
    31    15    16    1
    32    16    17   ar
    33    17    18   ar
    34    18    19   ar
    35    19    23    1
    36    23    24    1
    37    23    25    1
    38    23    26    1
    39    19    20   ar
    40    20    21   ar
    41    21    22    1
    42     9    10    1
    43    34    29    1
    44    10     1    1
    45     9     3    1
    46    22    13    1
    47    44    40    1
    48    21    16   ar
    49    27    28    1
@<TRIPOS>MOLECULE
*****
 44 49 0 0 0
SMALL
GASTEIGER

@<TRIPOS>ATOM
      1 C         141.5845  143.9428  160.4208 C.3     1  UNL1        0.0546
      2 C         140.2698  144.4329  159.8903 C.3     1  UNL1        0.0180
      3 C         139.6572  143.3300  159.0789 C.3     1  UNL1        0.0311
      4 C         138.4661  142.9513  158.2495 C.3     1  UNL1        0.0973
      5 N         138.6660  141.5455  157.7660 N.am    1  UNL1       -0.2455
      6 C         137.7177  140.7665  156.9034 C.2     1  UNL1        0.4049
      7 O         138.0542  139.3623  156.4973 O.2     1  UNL1       -0.2262
      8 C         139.9806  141.0554  158.2966 C.3     1  UNL1        0.1053
      9 C         140.5933  142.1582  159.1079 C.3     1  UNL1        0.0903
     10 C         141.7843  142.5370  159.9373 C.3     1  UNL1        0.0261
     11 C         141.5293  140.9865  159.1370 C.2     1  UNL1        0.2267
     12 O         142.5304  140.7988  158.0359 O.2     1  UNL1       -0.2748
     13 N         141.4642  140.0024  160.2673 N.am    1  UNL1       -0.2750
     14 C         142.4002  138.8307  160.2963 C.3     1  UNL1        0.1000
     15 C         142.3351  137.8467  161.4266 C.3     1  UNL1        0.0670
     16 C         141.3340  138.0344  162.5277 C.ar    1  UNL1        0.0583
     17 N         141.2689  137.0503  163.6579 N.ar    1  UNL1       -0.2484
     18 C         140.2677  137.2379  164.7590 C.ar    1  UNL1        0.1023
     19 C         139.3317  138.4097  164.7299 C.ar    1  UNL1        0.0902
     20 C         139.3968  139.3938  163.5997 C.ar    1  UNL1        0.0040
     21 C         140.3979  139.2061  162.4986 C.ar    1  UNL1        0.0113
     22 C         140.4631  140.1901  161.3684 C.3     1  UNL1        0.1213
     23 C         138.3305  138.5974  165.8310 C.3     1  UNL1        0.4200
     24 F         137.3294  138.7851  166.9322 F       1  UNL1       -0.1658
     25 F         138.1752  137.1097  165.9434 F       1  UNL1       -0.1658
     26 F         138.4858  140.0851  165.7187 F       1  UNL1       -0.1658
     27 N         142.5328  144.7217  161.2834 N.3     1  UNL1       -0.2975
     28 H         143.2431  145.1107  160.6633 H       1  UNL1        0.1232
     29 C         142.8085  144.2301  163.8196 C.3     1  UNL1        0.1591
     30 C         143.5375  143.5474  164.9387 C.3     1  UNL1        0.1729
     31 O         144.7198  142.6738  164.6409 O.3     1  UNL1       -0.3511
     32 C         145.1732  142.4827  163.2238 C.3     1  UNL1        0.1437
     33 C         144.4442  143.1654  162.1047 C.3     1  UNL1        0.0503
     34 C         143.2618  144.0391  162.4026 C.3     1  UNL1        0.0865
     35 C         140.2531  144.5052  164.1998 C.3     1  UNL1        0.1742
     36 O         141.6261  145.1037  164.1174 O.3     1  UNL1       -0.3496
     37 O         136.4329  141.3918  156.4470 O.3     1  UNL1       -0.4330
     38 C         135.4833  140.6119  155.5868 C.3     1  UNL1        0.2274
     39 C         134.0519  141.0441  155.4673 C.3     1  UNL1        0.1202
     40 N         132.9854  140.3293  156.2428 N.3     1  UNL1       -0.2696
     41 C         131.5174  140.6360  156.2119 C.3     1  UNL1        0.0722
     42 C         130.8243  139.6785  157.1354 C.3     1  UNL1        0.0188
     43 C         131.8639  138.7801  157.7370 C.3     1  UNL1        0.0188
     44 C         133.1995  139.1823  157.1854 C.3     1  UNL1        0.0722
@<TRIPOS>BOND
     1    35    36    1
     2    36    29    1
     3    29    30    1
     4    30    31    1
     5    31    32    1
     6    32    33    1
     7    33    34    1
     8    34    27    1
     9     1    27    1
    10     1     2    1
    11     3     2    1
    12     3     4    1
    13     4     5    1
    14     5     6   am
    15     6     7    2
    16     6    37    1
    17    37    38    1
    18    38    39    1
    19    39    40    1
    20    40    41    1
    21    41    42    1
    22    42    43    1
    23    43    44    1
    24     5     8    1
    25     8     9    1
    26     9    11    1
    27    11    12    2
    28    11    13   am
    29    13    14    1
    30    14    15    1
    31    15    16    1
    32    16    17   ar
    33    17    18   ar
    34    18    19   ar
    35    19    23    1
    36    23    24    1
    37    23    25    1
    38    23    26    1
    39    19    20   ar
    40    20    21   ar
    41    21    22    1
    42     9    10    1
    43    34    29    1
    44    10     1    1
    45     9     3    1
    46    22    13    1
    47    44    40    1
    48    21    16   ar
    49    27    28    1
@<TRIPOS>MOLECULE
*****
 44 49 0 0 0
SMALL
GASTEIGER

@<TRIPOS>ATOM
      1 C         139.1107  141.9684  159.6950 C.3     1  UNL1        0.0546
      2 C         138.4856  141.0279  158.7077 C.3     1  UNL1        0.0180
      3 C         139.5107  139.9982  158.3353 C.3     1  UNL1        0.0311
      4 C         139.7580  138.7805  157.4950 C.3     1  UNL1        0.0973
      5 N         141.1695  138.3320  157.7328 N.am    1  UNL1       -0.2455
      6 C         141.8384  137.1504  157.0952 C.2     1  UNL1        0.4049
      7 O         143.2629  136.8230  157.4321 O.2     1  UNL1       -0.2262
      8 C         141.7946  139.2725  158.7201 C.3     1  UNL1        0.1053
      9 C         140.7695  140.3022  159.0925 C.3     1  UNL1        0.0903
     10 C         140.5222  141.5199  159.9328 C.3     1  UNL1        0.0261
     11 C         142.0281  140.6063  159.8496 C.2     1  UNL1        0.2267
     12 O         143.2444  141.0922  159.1185 O.2     1  UNL1       -0.2748
     13 N         142.0705  140.4244  161.3380 N.am    1  UNL1       -0.2750
     14 C         143.3292  140.7285  162.0951 C.3     1  UNL1        0.1000
     15 C         143.3716  140.5466  163.5834 C.3     1  UNL1        0.0670
     16 C         142.1553  140.0607  164.3146 C.ar    1  UNL1        0.0583
     17 N         142.1977  139.8788  165.8030 N.ar    1  UNL1       -0.2484
     18 C         140.9815  139.3929  166.5341 C.ar    1  UNL1        0.1023
     19 C         139.7228  139.0889  165.7769 C.ar    1  UNL1        0.0902
     20 C         139.6804  139.2707  164.2886 C.ar    1  UNL1        0.0040
     21 C         140.8967  139.7566  163.5575 C.ar    1  UNL1        0.0113
     22 C         140.8543  139.9385  162.0692 C.3     1  UNL1        0.1213
     23 C         138.5065  138.6030  166.5081 C.3     1  UNL1        0.4200
     24 F         137.2902  138.1171  167.2392 F       1  UNL1       -0.1658
     25 F         138.7578  139.6073  167.5935 F       1  UNL1       -0.1658
     26 F         138.2552  137.5987  165.4226 F       1  UNL1       -0.1658
     27 N         138.4418  143.1500  160.3326 N.3     1  UNL1       -0.2975
     28 H         139.0150  143.9653  160.1159 H       1  UNL1        0.1232
     29 C         138.4309  144.4298  162.5936 C.3     1  UNL1        0.1591
     30 C         138.1938  144.4485  164.0746 C.3     1  UNL1        0.1729
     31 O         137.7306  143.2061  164.7757 O.3     1  UNL1       -0.3511
     32 C         137.5044  141.9448  163.9958 C.3     1  UNL1        0.1437
     33 C         137.7414  141.9261  162.5148 C.3     1  UNL1        0.0503
     34 C         138.2047  143.1687  161.8137 C.3     1  UNL1        0.0865
     35 C         140.3101  145.7768  161.4086 C.3     1  UNL1        0.1742
     36 O         138.8941  145.6723  161.8924 O.3     1  UNL1       -0.3496
     37 O         141.0828  136.2964  156.1207 O.3     1  UNL1       -0.4330
     38 C         141.8168  135.3092  155.2624 C.3     1  UNL1        0.2274
     39 C         141.7803  133.8483  155.6009 C.3     1  UNL1        0.1202
     40 N         143.0086  133.1706  156.1321 N.3     1  UNL1       -0.2696
     41 C         143.6659  133.4452  157.4521 C.3     1  UNL1        0.0722
     42 C         144.8587  132.5437  157.5724 C.3     1  UNL1        0.0188
     43 C         144.9385  131.7119  156.3267 C.3     1  UNL1        0.0188
     44 C         143.7950  132.0993  155.4366 C.3     1  UNL1        0.0722
@<TRIPOS>BOND
     1    35    36    1
     2    36    29    1
     3    29    30    1
     4    30    31    1
     5    31    32    1
     6    32    33    1
     7    33    34    1
     8    34    27    1
     9     1    27    1
    10     1     2    1
    11     3     2    1
    12     3     4    1
    13     4     5    1
    14     5     6   am
    15     6     7    2
    16     6    37    1
    17    37    38    1
    18    38    39    1
    19    39    40    1
    20    40    41    1
    21    41    42    1
    22    42    43    1
    23    43    44    1
    24     5     8    1
    25     8     9    1
    26     9    11    1
    27    11    12    2
    28    11    13   am
    29    13    14    1
    30    14    15    1
    31    15    16    1
    32    16    17   ar
    33    17    18   ar
    34    18    19   ar
    35    19    23    1
    36    23    24    1
    37    23    25    1
    38    23    26    1
    39    19    20   ar
    40    20    21   ar
    41    21    22    1
    42     9    10    1
    43    34    29    1
    44    10     1    1
    45     9     3    1
    46    22    13    1
    47    44    40    1
    48    21    16   ar
    49    27    28    1
@<TRIPOS>MOLECULE
*****
 44 49 0 0 0
SMALL
GASTEIGER

@<TRIPOS>ATOM
      1 C         142.4104  138.2876  158.2465 C.3     1  UNL1        0.0546
      2 C         142.7090  139.6935  157.8175 C.3     1  UNL1        0.0180
      3 C         141.6899  140.5965  158.4467 C.3     1  UNL1        0.0311
      4 C         141.2446  142.0235  158.5705 C.3     1  UNL1        0.0973
      5 N         140.0408  142.0576  159.4649 N.am    1  UNL1       -0.2455
      6 C         139.2709  143.2826  159.8607 C.2     1  UNL1        0.4049
      7 O         138.0818  143.1608  160.7669 O.2     1  UNL1       -0.2262
      8 C         139.7422  140.6516  159.8938 C.3     1  UNL1        0.1053
      9 C         140.7613  139.7486  159.2646 C.3     1  UNL1        0.0903
     10 C         141.2066  138.3216  159.1409 C.3     1  UNL1        0.0261
     11 C         139.8328  138.9007  160.0825 C.2     1  UNL1        0.2267
     12 O         138.8544  137.9895  159.4025 O.2     1  UNL1       -0.2748
     13 N         139.8827  138.9641  161.5804 N.am    1  UNL1       -0.2750
     14 C         138.9541  138.1162  162.3982 C.3     1  UNL1        0.1000
     15 C         139.0040  138.1796  163.8960 C.3     1  UNL1        0.0670
     16 C         139.9824  139.0908  164.5760 C.ar    1  UNL1        0.0583
     17 N         140.0323  139.1542  166.0739 N.ar    1  UNL1       -0.2484
     18 C         141.0107  140.0654  166.7538 C.ar    1  UNL1        0.1023
     19 C         141.9392  140.9133  165.9359 C.ar    1  UNL1        0.0902
     20 C         141.8893  140.8500  164.4381 C.ar    1  UNL1        0.0040
     21 C         140.9109  139.9387  163.7581 C.ar    1  UNL1        0.0113
     22 C         140.8610  139.8753  162.2603 C.3     1  UNL1        0.1213
     23 C         142.9176  141.8246  166.6158 C.3     1  UNL1        0.4200
     24 F         143.8960  142.7359  167.2958 F       1  UNL1       -0.1658
     25 F         141.8992  142.1282  167.6744 F       1  UNL1       -0.1658
     26 F         143.9361  141.5210  165.5573 F       1  UNL1       -0.1658
     27 N         143.1803  137.0625  157.8507 N.3     1  UNL1       -0.2975
     28 H         144.0911  137.3812  157.5202 H       1  UNL1        0.1232
     29 C         142.8573  134.6625  156.9098 C.3     1  UNL1        0.1591
     30 C         142.3129  133.7418  155.8581 C.3     1  UNL1        0.1729
     31 O         141.5471  134.3006  154.6956 O.3     1  UNL1       -0.3511
     32 C         141.3257  135.7801  154.5848 C.3     1  UNL1        0.1437
     33 C         141.8701  136.7007  155.6365 C.3     1  UNL1        0.0503
     34 C         142.6359  136.1419  156.7990 C.3     1  UNL1        0.0865
     35 C         144.6283  133.0121  157.8531 C.3     1  UNL1        0.1742
     36 O         143.6231  134.1037  158.0722 O.3     1  UNL1       -0.3496
     37 O         139.6901  144.6294  159.3504 O.3     1  UNL1       -0.4330
     38 C         140.4176  145.5805  160.2537 C.3     1  UNL1        0.2274
     39 C         139.7615  146.0721  161.5099 C.3     1  UNL1        0.1202
     40 N         139.9814  145.3465  162.8042 N.3     1  UNL1       -0.2696
     41 C         138.9115  144.8840  163.7484 C.3     1  UNL1        0.0722
     42 C         139.5786  144.2077  164.9093 C.3     1  UNL1        0.0188
     43 C         141.0606  144.2522  164.6825 C.3     1  UNL1        0.0188
     44 C         141.3096  144.9560  163.3815 C.3     1  UNL1        0.0722
@<TRIPOS>BOND
     1    35    36    1
     2    36    29    1
     3    29    30    1
     4    30    31    1
     5    31    32    1
     6    32    33    1
     7    33    34    1
     8    34    27    1
     9     1    27    1
    10     1     2    1
    11     3     2    1
    12     3     4    1
    13     4     5    1
    14     5     6   am
    15     6     7    2
    16     6    37    1
    17    37    38    1
    18    38    39    1
    19    39    40    1
    20    40    41    1
    21    41    42    1
    22    42    43    1
    23    43    44    1
    24     5     8    1
    25     8     9    1
    26     9    11    1
    27    11    12    2
    28    11    13   am
    29    13    14    1
    30    14    15    1
    31    15    16    1
    32    16    17   ar
    33    17    18   ar
    34    18    19   ar
    35    19    23    1
    36    23    24    1
    37    23    25    1
    38    23    26    1
    39    19    20   ar
    40    20    21   ar
    41    21    22    1
    42     9    10    1
    43    34    29    1
    44    10     1    1
    45     9     3    1
    46    22    13    1
    47    44    40    1
    48    21    16   ar
    49    27    28    1
@<TRIPOS>MOLECULE
*****
 44 49 0 0 0
SMALL
GASTEIGER

@<TRIPOS>ATOM
      1 C         139.6852  143.3483  159.3868 C.3     1  UNL1        0.0546
      2 C         140.5000  143.1752  158.1394 C.3     1  UNL1        0.0180
      3 C         140.2798  141.7811  157.6316 C.3     1  UNL1        0.0311
      4 C         140.6472  140.8124  156.5468 C.3     1  UNL1        0.0973
      5 N         139.9234  139.5252  156.8101 N.am    1  UNL1       -0.2455
      6 C         140.0008  138.2830  155.9728 C.2     1  UNL1        0.4049
      7 O         139.2161  137.0656  156.3628 O.2     1  UNL1       -0.2262
      8 C         139.1087  139.6983  158.0576 C.3     1  UNL1        0.1053
      9 C         139.3289  141.0925  158.5653 C.3     1  UNL1        0.0903
     10 C         138.9615  142.0611  159.6501 C.3     1  UNL1        0.0261
     11 C         138.3781  140.4039  159.4990 C.2     1  UNL1        0.2267
     12 O         136.9271  140.2842  159.1380 O.2     1  UNL1       -0.2748
     13 N         138.8782  139.8351  160.7938 N.am    1  UNL1       -0.2750
     14 C         137.9274  139.1466  161.7275 C.3     1  UNL1        0.1000
     15 C         138.4275  138.5778  163.0222 C.3     1  UNL1        0.0670
     16 C         139.8785  138.6976  163.3832 C.ar    1  UNL1        0.0583
     17 N         140.3786  138.1288  164.6780 N.ar    1  UNL1       -0.2484
     18 C         141.8296  138.2485  165.0390 C.ar    1  UNL1        0.1023
     19 C         142.7804  138.9371  164.1052 C.ar    1  UNL1        0.0902
     20 C         142.2803  139.5059  162.8105 C.ar    1  UNL1        0.0040
     21 C         140.8293  139.3861  162.4495 C.ar    1  UNL1        0.0113
     22 C         140.3292  139.9549  161.1548 C.3     1  UNL1        0.1213
     23 C         144.2314  139.0569  164.4663 C.3     1  UNL1        0.4200
     24 F         145.6824  139.1766  164.8273 F       1  UNL1       -0.1658
     25 F         143.9671  138.3506  165.7629 F       1  UNL1       -0.1658
     26 F         144.4957  139.7632  163.1696 F       1  UNL1       -0.1658
     27 N         139.6078  144.5905  160.2241 N.3     1  UNL1       -0.2975
     28 H         140.2120  145.2825  159.7809 H       1  UNL1        0.1232
     29 C         141.4377  144.4292  162.0613 C.3     1  UNL1        0.1591
     30 C         141.8234  144.3823  163.5101 C.3     1  UNL1        0.1729
     31 O         140.7647  144.4499  164.5706 O.3     1  UNL1       -0.3511
     32 C         139.3203  144.5643  164.1823 C.3     1  UNL1        0.1437
     33 C         138.9347  144.6112  162.7334 C.3     1  UNL1        0.0503
     34 C         139.9934  144.5436  161.6730 C.3     1  UNL1        0.0865
     35 C         143.2356  143.0789  160.7596 C.3     1  UNL1        0.1742
     36 O         142.4964  144.3617  161.0008 O.3     1  UNL1       -0.3496
     37 O         140.8630  138.2583  154.7456 O.3     1  UNL1       -0.4330
     38 C         142.1979  137.5751  154.7805 C.3     1  UNL1        0.2274
     39 C         143.3457  138.2084  155.5097 C.3     1  UNL1        0.1202
     40 N         143.2623  138.4306  156.9908 N.3     1  UNL1       -0.2696
     41 C         143.6609  139.6801  157.7186 C.3     1  UNL1        0.0722
     42 C         143.4107  139.4641  159.1818 C.3     1  UNL1        0.0188
     43 C         142.8574  138.0811  159.3581 C.3     1  UNL1        0.0188
     44 C         142.7657  137.4423  158.0041 C.3     1  UNL1        0.0722
@<TRIPOS>BOND
     1    35    36    1
     2    36    29    1
     3    29    30    1
     4    30    31    1
     5    31    32    1
     6    32    33    1
     7    33    34    1
     8    34    27    1
     9     1    27    1
    10     1     2    1
    11     3     2    1
    12     3     4    1
    13     4     5    1
    14     5     6   am
    15     6     7    2
    16     6    37    1
    17    37    38    1
    18    38    39    1
    19    39    40    1
    20    40    41    1
    21    41    42    1
    22    42    43    1
    23    43    44    1
    24     5     8    1
    25     8     9    1
    26     9    11    1
    27    11    12    2
    28    11    13   am
    29    13    14    1
    30    14    15    1
    31    15    16    1
    32    16    17   ar
    33    17    18   ar
    34    18    19   ar
    35    19    23    1
    36    23    24    1
    37    23    25    1
    38    23    26    1
    39    19    20   ar
    40    20    21   ar
    41    21    22    1
    42     9    10    1
    43    34    29    1
    44    10     1    1
    45     9     3    1
    46    22    13    1
    47    44    40    1
    48    21    16   ar
    49    27    28    1
@<TRIPOS>MOLECULE
*****
 44 49 0 0 0
SMALL
GASTEIGER

@<TRIPOS>ATOM
      1 C         144.2324  141.6124  160.3480 C.3     1  UNL1        0.0546
      2 C         143.7083  142.1274  159.0403 C.3     1  UNL1        0.0180
      3 C         142.7096  141.1372  158.5189 C.3     1  UNL1        0.0311
      4 C         141.7684  140.8434  157.3885 C.3     1  UNL1        0.0973
      5 N         141.0936  139.5348  157.6752 N.am    1  UNL1       -0.2455
      6 C         140.0737  138.8598  156.8067 C.2     1  UNL1        0.4049
      7 O         139.4831  137.5463  157.2259 O.2     1  UNL1       -0.2262
      8 C         141.6177  139.0198  158.9829 C.3     1  UNL1        0.1053
      9 C         142.6164  140.0100  159.5043 C.3     1  UNL1        0.0903
     10 C         143.5576  140.3038  160.6347 C.3     1  UNL1        0.0261
     11 C         142.5233  138.8830  160.4897 C.2     1  UNL1        0.2267
     12 O         143.0323  137.5209  160.1216 O.2     1  UNL1       -0.2748
     13 N         141.9211  139.1181  161.8433 N.am    1  UNL1       -0.2750
     14 C         141.8280  137.9910  162.8287 C.3     1  UNL1        0.1000
     15 C         141.2258  138.2261  164.1823 C.3     1  UNL1        0.0670
     16 C         140.7168  139.5882  164.5504 C.ar    1  UNL1        0.0583
     17 N         140.1146  139.8233  165.9040 N.ar    1  UNL1       -0.2484
     18 C         139.6055  141.1854  166.2721 C.ar    1  UNL1        0.1023
     19 C         139.6987  142.3125  165.2866 C.ar    1  UNL1        0.0902
     20 C         140.3009  142.0774  163.9331 C.ar    1  UNL1        0.0040
     21 C         140.8099  140.7153  163.5650 C.ar    1  UNL1        0.0113
     22 C         141.4121  140.4802  162.2115 C.3     1  UNL1        0.1213
     23 C         139.1897  143.6746  165.6547 C.3     1  UNL1        0.4200
     24 F         138.6806  145.0367  166.0229 F       1  UNL1       -0.1658
     25 F         139.9439  143.6065  166.9495 F       1  UNL1       -0.1658
     26 F         138.4354  143.7426  164.3600 F       1  UNL1       -0.1658
     27 N         145.2524  142.2874  161.2165 N.3     1  UNL1       -0.2975
     28 H         145.9471  141.5808  161.4584 H       1  UNL1        0.1232
     29 C         145.0587  142.2366  163.8068 C.3     1  UNL1        0.1591
     30 C         144.6375  142.8873  165.0910 C.3     1  UNL1        0.1729
     31 O         143.9888  144.2396  165.0691 O.3     1  UNL1       -0.3511
     32 C         143.7612  144.9412  163.7629 C.3     1  UNL1        0.1437
     33 C         144.1824  144.2904  162.4787 C.3     1  UNL1        0.0503
     34 C         144.8312  142.9381  162.5007 C.3     1  UNL1        0.0865
     35 C         144.8981  139.6697  164.1748 C.3     1  UNL1        0.1742
     36 O         145.7075  140.8843  163.8288 O.3     1  UNL1       -0.3496
     37 O         139.6444  139.4984  155.5191 O.3     1  UNL1       -0.4330
     38 C         138.6256  140.5992  155.5311 C.3     1  UNL1        0.2274
     39 C         137.6211  140.6795  156.6422 C.3     1  UNL1        0.1202
     40 N         138.0333  141.1916  157.9904 N.3     1  UNL1       -0.2696
     41 C         138.6109  142.5452  158.2805 C.3     1  UNL1        0.0722
     42 C         138.8749  142.6302  159.7547 C.3     1  UNL1        0.0188
     43 C         138.4605  141.3292  160.3756 C.3     1  UNL1        0.0188
     44 C         137.9404  140.4401  159.2852 C.3     1  UNL1        0.0722
@<TRIPOS>BOND
     1    35    36    1
     2    36    29    1
     3    29    30    1
     4    30    31    1
     5    31    32    1
     6    32    33    1
     7    33    34    1
     8    34    27    1
     9     1    27    1
    10     1     2    1
    11     3     2    1
    12     3     4    1
    13     4     5    1
    14     5     6   am
    15     6     7    2
    16     6    37    1
    17    37    38    1
    18    38    39    1
    19    39    40    1
    20    40    41    1
    21    41    42    1
    22    42    43    1
    23    43    44    1
    24     5     8    1
    25     8     9    1
    26     9    11    1
    27    11    12    2
    28    11    13   am
    29    13    14    1
    30    14    15    1
    31    15    16    1
    32    16    17   ar
    33    17    18   ar
    34    18    19   ar
    35    19    23    1
    36    23    24    1
    37    23    25    1
    38    23    26    1
    39    19    20   ar
    40    20    21   ar
    41    21    22    1
    42     9    10    1
    43    34    29    1
    44    10     1    1
    45     9     3    1
    46    22    13    1
    47    44    40    1
    48    21    16   ar
    49    27    28    1
@<TRIPOS>MOLECULE
*****
 44 49 0 0 0
SMALL
GASTEIGER

@<TRIPOS>ATOM
      1 C         138.7846  138.7823  163.8966 C.3     1  UNL1        0.0546
      2 C         138.1534  139.2588  165.1711 C.3     1  UNL1        0.0180
      3 C         139.2306  139.3684  166.2092 C.3     1  UNL1        0.0311
      4 C         139.5063  139.7307  167.6384 C.3     1  UNL1        0.0973
      5 N         140.9737  139.5459  167.8887 N.am    1  UNL1       -0.2455
      6 C         141.6850  139.7940  169.1859 C.2     1  UNL1        0.4049
      7 O         143.1638  139.5641  169.2863 O.2     1  UNL1       -0.2262
      8 C         141.6049  139.0694  166.6142 C.3     1  UNL1        0.1053
      9 C         140.5277  138.9598  165.5762 C.3     1  UNL1        0.0903
     10 C         140.2520  138.5975  164.1469 C.3     1  UNL1        0.0261
     11 C         141.8247  138.5511  164.9431 C.2     1  UNL1        0.2267
     12 O         142.5486  137.3331  165.4355 O.2     1  UNL1       -0.2748
     13 N         142.3978  139.3604  163.8176 N.am    1  UNL1       -0.2750
     14 C         143.6948  138.9517  163.1846 C.3     1  UNL1        0.1000
     15 C         144.2678  139.7610  162.0592 C.3     1  UNL1        0.0670
     16 C         143.5439  140.9790  161.5668 C.ar    1  UNL1        0.0583
     17 N         144.1170  141.7884  160.4414 N.ar    1  UNL1       -0.2484
     18 C         143.3931  143.0063  159.9490 C.ar    1  UNL1        0.1023
     19 C         142.0960  143.4150  160.5821 C.ar    1  UNL1        0.0902
     20 C         141.5230  142.6057  161.7075 C.ar    1  UNL1        0.0040
     21 C         142.2469  141.3877  162.1999 C.ar    1  UNL1        0.0113
     22 C         141.6739  140.5784  163.3253 C.3     1  UNL1        0.1213
     23 C         141.3721  144.6330  160.0897 C.3     1  UNL1        0.4200
     24 F         140.6482  145.8510  159.5974 F       1  UNL1       -0.1658
     25 F         142.1840  144.6058  158.8287 F       1  UNL1       -0.1658
     26 F         140.5602  144.6602  161.3507 F       1  UNL1       -0.1658
     27 N         138.0734  138.5342  162.5994 N.3     1  UNL1       -0.2975
     28 H         138.1705  137.5395  162.3959 H       1  UNL1        0.1232
     29 C         138.0581  140.6931  161.1541 C.3     1  UNL1        0.1591
     30 C         138.4757  141.4310  159.9167 C.3     1  UNL1        0.1729
     31 O         139.3262  140.7479  158.8873 O.3     1  UNL1       -0.3511
     32 C         139.7592  139.3268  159.0952 C.3     1  UNL1        0.1437
     33 C         139.3416  138.5889  160.3325 C.3     1  UNL1        0.0503
     34 C         138.4910  139.2721  161.3620 C.3     1  UNL1        0.0865
     35 C         137.7131  142.6059  162.8782 C.3     1  UNL1        0.1742
     36 O         137.2075  141.3762  162.1836 O.3     1  UNL1       -0.3496
     37 O         140.9174  140.2719  170.3827 O.3     1  UNL1       -0.4330
     38 C         140.7563  141.7422  170.6321 C.3     1  UNL1        0.2274
     39 C         141.6191  142.7263  169.8991 C.3     1  UNL1        0.1202
     40 N         141.6354  142.7381  168.3993 N.3     1  UNL1       -0.2696
     41 C         140.4541  142.9780  167.5066 C.3     1  UNL1        0.0722
     42 C         140.9245  142.9003  166.0844 C.3     1  UNL1        0.0188
     43 C         142.3965  142.6123  166.0982 C.3     1  UNL1        0.0188
     44 C         142.8359  142.5121  167.5288 C.3     1  UNL1        0.0722
@<TRIPOS>BOND
     1    35    36    1
     2    36    29    1
     3    29    30    1
     4    30    31    1
     5    31    32    1
     6    32    33    1
     7    33    34    1
     8    34    27    1
     9     1    27    1
    10     1     2    1
    11     3     2    1
    12     3     4    1
    13     4     5    1
    14     5     6   am
    15     6     7    2
    16     6    37    1
    17    37    38    1
    18    38    39    1
    19    39    40    1
    20    40    41    1
    21    41    42    1
    22    42    43    1
    23    43    44    1
    24     5     8    1
    25     8     9    1
    26     9    11    1
    27    11    12    2
    28    11    13   am
    29    13    14    1
    30    14    15    1
    31    15    16    1
    32    16    17   ar
    33    17    18   ar
    34    18    19   ar
    35    19    23    1
    36    23    24    1
    37    23    25    1
    38    23    26    1
    39    19    20   ar
    40    20    21   ar
    41    21    22    1
    42     9    10    1
    43    34    29    1
    44    10     1    1
    45     9     3    1
    46    22    13    1
    47    44    40    1
    48    21    16   ar
    49    27    28    1
