@<TRIPOS>MOLECULE
*****
 29 31 0 0 0
SMALL
GASTEIGER

@<TRIPOS>ATOM
      1 C         139.8225  138.6008  161.9379 C.ar    1  UNL1        0.2379
      2 N         139.8736  139.4457  163.1763 N.ar    1  UNL1       -0.1907
      3 C         140.5304  138.6419  164.2591 C.ar    1  UNL1        0.2041
      4 N         140.8853  137.3002  163.6900 N.ar    1  UNL1       -0.0560
      5 O         140.4478  137.2747  162.2554 O.2     1  UNL1       -0.3370
      6 C         140.7872  139.0995  165.6644 C.ar    1  UNL1        0.0497
      7 C         142.1915  139.1627  166.1877 C.ar    1  UNL1        0.0053
      8 C         142.4483  139.6203  167.5929 C.ar    1  UNL1        0.0185
      9 C         141.3008  140.0146  168.4748 C.ar    1  UNL1        0.1066
     10 C         139.8965  139.9514  167.9514 C.ar    1  UNL1        0.0298
     11 C         139.6397  139.4939  166.5462 C.ar    1  UNL1        0.0620
     12 CL        138.2353  139.4306  166.0228 Cl      1  UNL1       -0.0821
     13 S         141.5576  140.4722  169.8801 S.O2    1  UNL1        0.0105
     14 C         141.8144  140.9297  171.2853 C.3     1  UNL1        0.1816
     15 O         140.5248  139.5077  170.3828 O.2     1  UNL1       -0.1686
     16 O         142.5904  141.4368  169.3773 O.2     1  UNL1       -0.1686
     17 C         139.8282  138.4651  159.3434 C.3     1  UNL1        0.0117
     18 C         139.2472  139.0100  160.6144 C.3     1  UNL1        0.1022
     19 C         138.0909  139.9640  160.5620 C.3     1  UNL1        0.1374
     20 N         136.6901  139.4392  160.4493 N.3     1  UNL1       -0.3146
     21 H         136.7102  138.4198  160.4208 H       1  UNL1        0.1192
     22 H         136.2616  139.7948  159.5947 H       1  UNL1        0.1192
     23 C         138.3352  141.4427  160.6222 C.2     1  UNL1        0.2402
     24 O         138.8583  142.1661  159.4167 O.2     1  UNL1       -0.2734
     25 N         138.0566  142.1980  161.8878 N.am    1  UNL1       -0.2785
     26 C         137.5343  141.6134  163.1667 C.3     1  UNL1        0.0935
     27 C         137.4062  142.7247  164.1660 C.3     1  UNL1        0.0233
     28 C         137.8492  143.9961  163.5048 C.3     1  UNL1        0.0233
     29 C         138.2512  143.6706  162.0968 C.3     1  UNL1        0.0935
@<TRIPOS>BOND
     1    18    17    1
     2    18     1    1
     3     1     2   ar
     4     2     3   ar
     5     3     6    1
     6     6     7   ar
     7     7     8   ar
     8     8     9   ar
     9     9    13    1
    10    13    14    1
    11    13    15    2
    12    13    16    2
    13     9    10   ar
    14    10    11   ar
    15    11    12    1
    16     3     4   ar
    17     4     5   ar
    18    18    19    1
    19    19    20    1
    20    19    23    1
    21    23    24    2
    22    23    25   am
    23    25    26    1
    24    26    27    1
    25    27    28    1
    26    28    29    1
    27     5     1   ar
    28    29    25    1
    29    11     6   ar
    30    20    21    1
    31    20    22    1
@<TRIPOS>MOLECULE
*****
 29 31 0 0 0
SMALL
GASTEIGER

@<TRIPOS>ATOM
      1 C         141.1756  138.6540  161.9027 C.ar    1  UNL1        0.2379
      2 N         141.2347  139.5311  163.1181 N.ar    1  UNL1       -0.1907
      3 C         140.9869  138.6717  164.3223 C.ar    1  UNL1        0.2041
      4 N         140.7747  137.2635  163.8511 N.ar    1  UNL1       -0.0560
      5 O         140.8914  137.2525  162.3557 O.2     1  UNL1       -0.3370
      6 C         140.9566  139.1386  165.7475 C.ar    1  UNL1        0.0497
      7 C         142.2354  139.2742  166.5197 C.ar    1  UNL1        0.0053
      8 C         142.2051  139.7410  167.9448 C.ar    1  UNL1        0.0185
      9 C         140.8959  140.0722  168.5978 C.ar    1  UNL1        0.1066
     10 C         139.6171  139.9366  167.8257 C.ar    1  UNL1        0.0298
     11 C         139.6475  139.4697  166.4006 C.ar    1  UNL1        0.0620
     12 CL        138.3686  139.3341  165.6284 Cl      1  UNL1       -0.0821
     13 S         140.8657  140.5391  170.0231 S.O2    1  UNL1        0.0105
     14 C         140.8353  141.0059  171.4482 C.3     1  UNL1        0.1816
     15 O         139.6010  139.7649  170.2497 O.2     1  UNL1       -0.1686
     16 O         142.1303  141.3132  169.7964 O.2     1  UNL1       -0.1686
     17 C         140.2303  139.0105  159.5091 C.3     1  UNL1        0.0117
     18 C         141.3672  139.1000  160.4834 C.3     1  UNL1        0.1022
     19 C         142.6958  139.6356  160.0384 C.3     1  UNL1        0.1374
     20 N         143.5892  138.7992  159.1709 N.3     1  UNL1       -0.3146
     21 H         143.1388  137.9036  158.9827 H       1  UNL1        0.1192
     22 H         144.4758  138.6400  159.6495 H       1  UNL1        0.1192
     23 C         143.1310  141.0075  160.4607 C.2     1  UNL1        0.2402
     24 O         142.7017  142.2073  159.6692 O.2     1  UNL1       -0.2734
     25 N         143.9955  141.1797  161.6743 N.am    1  UNL1       -0.2785
     26 C         144.5009  140.0798  162.5602 C.3     1  UNL1        0.0935
     27 C         145.3241  140.7024  163.6485 C.3     1  UNL1        0.0233
     28 C         145.3275  142.1871  163.4354 C.3     1  UNL1        0.0233
     29 C         144.5064  142.4822  162.2153 C.3     1  UNL1        0.0935
@<TRIPOS>BOND
     1    18    17    1
     2    18     1    1
     3     1     2   ar
     4     2     3   ar
     5     3     6    1
     6     6     7   ar
     7     7     8   ar
     8     8     9   ar
     9     9    13    1
    10    13    14    1
    11    13    15    2
    12    13    16    2
    13     9    10   ar
    14    10    11   ar
    15    11    12    1
    16     3     4   ar
    17     4     5   ar
    18    18    19    1
    19    19    20    1
    20    19    23    1
    21    23    24    2
    22    23    25   am
    23    25    26    1
    24    26    27    1
    25    27    28    1
    26    28    29    1
    27     5     1   ar
    28    29    25    1
    29    11     6   ar
    30    20    21    1
    31    20    22    1
@<TRIPOS>MOLECULE
*****
 29 31 0 0 0
SMALL
GASTEIGER

@<TRIPOS>ATOM
      1 C         138.8396  142.2680  161.4523 C.ar    1  UNL1        0.2379
      2 N         139.6379  142.0054  162.6948 N.ar    1  UNL1       -0.1907
      3 C         138.6856  141.5998  163.7805 C.ar    1  UNL1        0.2041
      4 N         137.2988  141.6117  163.2090 N.ar    1  UNL1       -0.0560
      5 O         137.3939  142.0247  161.7701 O.2     1  UNL1       -0.3370
      6 C         139.0553  141.2446  165.1902 C.ar    1  UNL1        0.0497
      7 C         138.6421  139.9214  165.7632 C.ar    1  UNL1        0.0053
      8 C         139.0118  139.5663  167.1729 C.ar    1  UNL1        0.0185
      9 C         139.7946  140.5343  168.0095 C.ar    1  UNL1        0.1066
     10 C         140.2078  141.8575  167.4365 C.ar    1  UNL1        0.0298
     11 C         139.8381  142.2127  166.0269 C.ar    1  UNL1        0.0620
     12 CL        140.2513  143.5359  165.4538 Cl      1  UNL1       -0.0821
     13 S         140.1642  140.1791  169.4193 S.O2    1  UNL1        0.0105
     14 C         140.5338  139.8239  170.8289 C.3     1  UNL1        0.1816
     15 O         138.7225  139.9034  169.7278 O.2     1  UNL1       -0.1686
     16 O         141.6060  140.4548  169.1107 O.2     1  UNL1       -0.1686
     17 C         139.2994  141.7806  158.9421 C.3     1  UNL1        0.0117
     18 C         139.3903  142.6984  160.1251 C.3     1  UNL1        0.1022
     19 C         140.0318  144.0466  159.9808 C.3     1  UNL1        0.1374
     20 N         140.4545  144.5349  158.6268 N.3     1  UNL1       -0.3146
     21 H         140.2318  143.8283  157.9257 H       1  UNL1        0.1192
     22 H         141.4595  144.7091  158.6267 H       1  UNL1        0.1192
     23 C         140.2507  144.9064  161.1901 C.2     1  UNL1        0.2402
     24 O         139.1984  145.8885  161.6125 O.2     1  UNL1       -0.2734
     25 N         141.5217  144.7842  161.9772 N.am    1  UNL1       -0.2785
     26 C         142.6581  143.8521  161.6777 C.3     1  UNL1        0.0935
     27 C         143.7182  144.0646  162.7173 C.3     1  UNL1        0.0233
     28 C         143.2371  145.1280  163.6594 C.3     1  UNL1        0.0233
     29 C         141.8796  145.5728  163.2020 C.3     1  UNL1        0.0935
@<TRIPOS>BOND
     1    18    17    1
     2    18     1    1
     3     1     2   ar
     4     2     3   ar
     5     3     6    1
     6     6     7   ar
     7     7     8   ar
     8     8     9   ar
     9     9    13    1
    10    13    14    1
    11    13    15    2
    12    13    16    2
    13     9    10   ar
    14    10    11   ar
    15    11    12    1
    16     3     4   ar
    17     4     5   ar
    18    18    19    1
    19    19    20    1
    20    19    23    1
    21    23    24    2
    22    23    25   am
    23    25    26    1
    24    26    27    1
    25    27    28    1
    26    28    29    1
    27     5     1   ar
    28    29    25    1
    29    11     6   ar
    30    20    21    1
    31    20    22    1
@<TRIPOS>MOLECULE
*****
 29 31 0 0 0
SMALL
GASTEIGER

@<TRIPOS>ATOM
      1 C         142.7454  139.9466  167.7830 C.ar    1  UNL1        0.2379
      2 N         142.4964  140.2557  166.3365 N.ar    1  UNL1       -0.1907
      3 C         143.0350  139.1184  165.5201 C.ar    1  UNL1        0.2041
      4 N         143.6170  138.1065  166.4621 N.ar    1  UNL1       -0.0560
      5 O         143.4380  138.6183  167.8607 O.2     1  UNL1       -0.3370
      6 C         142.9982  139.0118  164.0243 C.ar    1  UNL1        0.0497
      7 C         141.9797  138.1336  163.3599 C.ar    1  UNL1        0.0053
      8 C         141.9429  138.0270  161.8642 C.ar    1  UNL1        0.0185
      9 C         142.9246  138.7985  161.0329 C.ar    1  UNL1        0.1066
     10 C         143.9431  139.6766  161.6973 C.ar    1  UNL1        0.0298
     11 C         143.9799  139.7833  163.1931 C.ar    1  UNL1        0.0620
     12 CL        144.9984  140.6614  163.8576 Cl      1  UNL1       -0.0821
     13 S         142.8878  138.6919  159.5371 S.O2    1  UNL1        0.0105
     14 C         142.8509  138.5852  158.0414 C.3     1  UNL1        0.1816
     15 O         141.4737  138.1966  159.6073 O.2     1  UNL1       -0.1686
     16 O         144.3019  139.1872  159.4669 O.2     1  UNL1       -0.1686
     17 C         143.3997  141.1855  169.9710 C.3     1  UNL1        0.0117
     18 C         142.3681  140.8136  168.9475 C.3     1  UNL1        0.1022
     19 C         140.9593  141.3087  169.0885 C.3     1  UNL1        0.1374
     20 N         140.6731  142.7805  169.0394 N.3     1  UNL1       -0.3146
     21 H         141.5452  143.2922  168.9057 H       1  UNL1        0.1192
     22 H         140.2388  143.0718  169.9152 H       1  UNL1        0.1192
     23 C         139.8366  140.3324  169.2786 C.2     1  UNL1        0.2402
     24 O         139.4652  139.8761  170.6585 O.2     1  UNL1       -0.2734
     25 N         139.0853  139.8123  168.0891 N.am    1  UNL1       -0.2785
     26 C         139.3416  140.1758  166.6565 C.3     1  UNL1        0.0935
     27 C         138.3606  139.4256  165.8053 C.3     1  UNL1        0.0233
     28 C         137.4980  138.5984  166.7117 C.3     1  UNL1        0.0233
     29 C         137.9459  138.8374  168.1232 C.3     1  UNL1        0.0935
@<TRIPOS>BOND
     1    18    17    1
     2    18     1    1
     3     1     2   ar
     4     2     3   ar
     5     3     6    1
     6     6     7   ar
     7     7     8   ar
     8     8     9   ar
     9     9    13    1
    10    13    14    1
    11    13    15    2
    12    13    16    2
    13     9    10   ar
    14    10    11   ar
    15    11    12    1
    16     3     4   ar
    17     4     5   ar
    18    18    19    1
    19    19    20    1
    20    19    23    1
    21    23    24    2
    22    23    25   am
    23    25    26    1
    24    26    27    1
    25    27    28    1
    26    28    29    1
    27     5     1   ar
    28    29    25    1
    29    11     6   ar
    30    20    21    1
    31    20    22    1
@<TRIPOS>MOLECULE
*****
 29 31 0 0 0
SMALL
GASTEIGER

@<TRIPOS>ATOM
      1 C         140.9268  138.1954  162.2079 C.ar    1  UNL1        0.2379
      2 N         140.9988  139.2220  163.2992 N.ar    1  UNL1       -0.1907
      3 C         141.1433  138.5000  164.6060 C.ar    1  UNL1        0.2041
      4 N         141.1605  137.0271  164.3224 N.ar    1  UNL1       -0.0560
      5 O         141.0267  136.8389  162.8403 O.2     1  UNL1       -0.3370
      6 C         141.2515  139.1386  165.9590 C.ar    1  UNL1        0.0497
      7 C         140.0625  139.8274  166.5605 C.ar    1  UNL1        0.0053
      8 C         140.1708  140.4660  167.9134 C.ar    1  UNL1        0.0185
      9 C         141.4680  140.4158  168.6648 C.ar    1  UNL1        0.1066
     10 C         142.6570  139.7270  168.0634 C.ar    1  UNL1        0.0298
     11 C         142.5487  139.0884  166.7105 C.ar    1  UNL1        0.0620
     12 CL        143.7377  138.3995  166.1089 Cl      1  UNL1       -0.0821
     13 S         141.5763  141.0545  170.0178 S.O2    1  UNL1        0.0105
     14 C         141.6845  141.6931  171.3707 C.3     1  UNL1        0.1816
     15 O         140.4449  141.9769  169.6729 O.2     1  UNL1       -0.1686
     16 O         142.7077  140.1321  170.3628 O.2     1  UNL1       -0.1686
     17 C         141.9520  138.2944  159.8227 C.3     1  UNL1        0.0117
     18 C         140.7805  138.4761  160.7417 C.3     1  UNL1        0.1022
     19 C         139.4626  138.9385  160.1944 C.3     1  UNL1        0.1374
     20 N         139.2183  138.9233  158.7144 N.3     1  UNL1       -0.3146
     21 H         140.0481  138.5720  158.2364 H       1  UNL1        0.1192
     22 H         139.0164  139.8702  158.3934 H       1  UNL1        0.1192
     23 C         138.3892  139.4159  161.1268 C.2     1  UNL1        0.2402
     24 O         137.3236  138.4679  161.5918 O.2     1  UNL1       -0.2734
     25 N         138.3811  140.8411  161.5943 N.am    1  UNL1       -0.2785
     26 C         139.3755  141.8987  161.2164 C.3     1  UNL1        0.0935
     27 C         138.9861  143.1702  161.9103 C.3     1  UNL1        0.0233
     28 C         137.7512  142.8986  162.7171 C.3     1  UNL1        0.0233
     29 C         137.3772  141.4591  162.5219 C.3     1  UNL1        0.0935
@<TRIPOS>BOND
     1    18    17    1
     2    18     1    1
     3     1     2   ar
     4     2     3   ar
     5     3     6    1
     6     6     7   ar
     7     7     8   ar
     8     8     9   ar
     9     9    13    1
    10    13    14    1
    11    13    15    2
    12    13    16    2
    13     9    10   ar
    14    10    11   ar
    15    11    12    1
    16     3     4   ar
    17     4     5   ar
    18    18    19    1
    19    19    20    1
    20    19    23    1
    21    23    24    2
    22    23    25   am
    23    25    26    1
    24    26    27    1
    25    27    28    1
    26    28    29    1
    27     5     1   ar
    28    29    25    1
    29    11     6   ar
    30    20    21    1
    31    20    22    1
@<TRIPOS>MOLECULE
*****
 29 31 0 0 0
SMALL
GASTEIGER

@<TRIPOS>ATOM
      1 C         139.3568  143.4310  161.3973 C.ar    1  UNL1        0.2379
      2 N         140.0434  142.7400  162.5380 N.ar    1  UNL1       -0.1907
      3 C         139.1220  142.7713  163.7212 C.ar    1  UNL1        0.2041
      4 N         137.8659  143.4817  163.3117 N.ar    1  UNL1       -0.0560
      5 O         138.0110  143.8894  161.8755 O.2     1  UNL1       -0.3370
      6 C         139.4066  142.1937  165.0760 C.ar    1  UNL1        0.0497
      7 C         140.1604  142.9999  166.0917 C.ar    1  UNL1        0.0053
      8 C         140.4450  142.4223  167.4464 C.ar    1  UNL1        0.0185
      9 C         139.9758  141.0385  167.7854 C.ar    1  UNL1        0.1066
     10 C         139.2220  140.2323  166.7696 C.ar    1  UNL1        0.0298
     11 C         138.9374  140.8099  165.4149 C.ar    1  UNL1        0.0620
     12 CL        138.1836  140.0037  164.3991 Cl      1  UNL1       -0.0821
     13 S         140.2604  140.4608  169.1402 S.O2    1  UNL1        0.0105
     14 C         140.5450  139.8832  170.4949 C.3     1  UNL1        0.1816
     15 O         138.9428  139.7446  169.1116 O.2     1  UNL1       -0.1686
     16 O         141.5780  141.1771  169.1688 O.2     1  UNL1       -0.1686
     17 C         139.3621  142.8496  158.8651 C.3     1  UNL1        0.0117
     18 C         139.9176  143.6288  160.0202 C.3     1  UNL1        0.1022
     19 C         141.0338  144.6059  159.7981 C.3     1  UNL1        0.1374
     20 N         141.4749  145.5068  160.9135 N.3     1  UNL1       -0.3146
     21 H         140.9117  145.3212  161.7434 H       1  UNL1        0.1192
     22 H         141.3552  146.4799  160.6321 H       1  UNL1        0.1192
     23 C         141.7090  144.6820  158.4610 C.2     1  UNL1        0.2402
     24 O         142.9955  143.9467  158.2275 O.2     1  UNL1       -0.2734
     25 N         141.0980  145.4935  157.3573 N.am    1  UNL1       -0.2785
     26 C         139.8226  146.2784  157.4422 C.3     1  UNL1        0.0935
     27 C         139.5915  146.9325  156.1123 C.3     1  UNL1        0.0233
     28 C         140.7240  146.5519  155.2054 C.3     1  UNL1        0.0233
     29 C         141.6551  145.6626  155.9749 C.3     1  UNL1        0.0935
@<TRIPOS>BOND
     1    18    17    1
     2    18     1    1
     3     1     2   ar
     4     2     3   ar
     5     3     6    1
     6     6     7   ar
     7     7     8   ar
     8     8     9   ar
     9     9    13    1
    10    13    14    1
    11    13    15    2
    12    13    16    2
    13     9    10   ar
    14    10    11   ar
    15    11    12    1
    16     3     4   ar
    17     4     5   ar
    18    18    19    1
    19    19    20    1
    20    19    23    1
    21    23    24    2
    22    23    25   am
    23    25    26    1
    24    26    27    1
    25    27    28    1
    26    28    29    1
    27     5     1   ar
    28    29    25    1
    29    11     6   ar
    30    20    21    1
    31    20    22    1
@<TRIPOS>MOLECULE
*****
 29 31 0 0 0
SMALL
GASTEIGER

@<TRIPOS>ATOM
      1 C         138.8023  142.0003  161.8718 C.ar    1  UNL1        0.2379
      2 N         139.6950  141.7719  163.0554 N.ar    1  UNL1       -0.1907
      3 C         138.8394  141.7683  164.2874 C.ar    1  UNL1        0.2041
      4 N         137.4179  141.9945  163.8652 N.ar    1  UNL1       -0.0560
      5 O         137.3950  142.1379  162.3723 O.2     1  UNL1       -0.3370
      6 C         139.3208  141.5729  165.6946 C.ar    1  UNL1        0.0497
      7 C         140.0791  142.6665  166.3866 C.ar    1  UNL1        0.0053
      8 C         140.5604  142.4710  167.7937 C.ar    1  UNL1        0.0185
      9 C         140.2834  141.1819  168.5089 C.ar    1  UNL1        0.1066
     10 C         139.5251  140.0882  167.8169 C.ar    1  UNL1        0.0298
     11 C         139.0438  140.2837  166.4097 C.ar    1  UNL1        0.0620
     12 CL        138.2855  139.1900  165.7176 Cl      1  UNL1       -0.0821
     13 S         140.7648  140.9864  169.9161 S.O2    1  UNL1        0.0105
     14 C         141.2462  140.7909  171.3232 C.3     1  UNL1        0.1816
     15 O         142.0432  140.3981  169.3970 O.2     1  UNL1       -0.1686
     16 O         139.4864  141.5747  170.4351 O.2     1  UNL1       -0.1686
     17 C         138.7366  141.0727  159.4458 C.3     1  UNL1        0.0117
     18 C         139.2401  142.0776  160.4391 C.3     1  UNL1        0.1022
     19 C         140.1814  143.1597  159.9998 C.3     1  UNL1        0.1374
     20 N         139.6882  144.2723  159.1228 N.3     1  UNL1       -0.3146
     21 H         138.6970  144.1352  158.9247 H       1  UNL1        0.1192
     22 H         140.2127  144.2737  158.2480 H       1  UNL1        0.1192
     23 C         141.6158  143.1293  160.4373 C.2     1  UNL1        0.2402
     24 O         142.6135  142.3040  159.6800 O.2     1  UNL1       -0.2734
     25 N         142.0525  143.9241  161.6322 N.am    1  UNL1       -0.2785
     26 C         141.1732  144.7909  162.4839 C.3     1  UNL1        0.0935
     27 C         142.0224  145.3941  163.5631 C.3     1  UNL1        0.0233
     28 C         143.4266  144.9001  163.3785 C.3     1  UNL1        0.0233
     29 C         143.4452  143.9916  162.1851 C.3     1  UNL1        0.0935
@<TRIPOS>BOND
     1    18    17    1
     2    18     1    1
     3     1     2   ar
     4     2     3   ar
     5     3     6    1
     6     6     7   ar
     7     7     8   ar
     8     8     9   ar
     9     9    13    1
    10    13    14    1
    11    13    15    2
    12    13    16    2
    13     9    10   ar
    14    10    11   ar
    15    11    12    1
    16     3     4   ar
    17     4     5   ar
    18    18    19    1
    19    19    20    1
    20    19    23    1
    21    23    24    2
    22    23    25   am
    23    25    26    1
    24    26    27    1
    25    27    28    1
    26    28    29    1
    27     5     1   ar
    28    29    25    1
    29    11     6   ar
    30    20    21    1
    31    20    22    1
@<TRIPOS>MOLECULE
*****
 29 31 0 0 0
SMALL
GASTEIGER

@<TRIPOS>ATOM
      1 C         139.8064  138.7038  161.8170 C.ar    1  UNL1        0.2379
      2 N         139.9974  139.5792  163.0200 N.ar    1  UNL1       -0.1907
      3 C         140.4038  138.7053  164.1693 C.ar    1  UNL1        0.2041
      4 N         140.4640  137.2898  163.6767 N.ar    1  UNL1       -0.0560
      5 O         140.0948  137.2888  162.2229 O.2     1  UNL1       -0.3370
      6 C         140.6984  139.1661  165.5662 C.ar    1  UNL1        0.0497
      7 C         142.1187  139.2774  166.0354 C.ar    1  UNL1        0.0053
      8 C         142.4132  139.7381  167.4321 C.ar    1  UNL1        0.0185
      9 C         141.2873  140.0875  168.3597 C.ar    1  UNL1        0.1066
     10 C         139.8670  139.9761  167.8905 C.ar    1  UNL1        0.0298
     11 C         139.5725  139.5154  166.4937 C.ar    1  UNL1        0.0620
     12 CL        138.1521  139.4040  166.0245 Cl      1  UNL1       -0.0821
     13 S         141.5818  140.5482  169.7565 S.O2    1  UNL1        0.0105
     14 C         141.8764  141.0089  171.1533 C.3     1  UNL1        0.1816
     15 O         142.9702  139.9912  169.6475 O.2     1  UNL1       -0.1686
     16 O         140.1934  141.1052  169.8656 O.2     1  UNL1       -0.1686
     17 C         140.1308  138.6600  159.2396 C.3     1  UNL1        0.0117
     18 C         139.3986  139.1627  160.4484 C.3     1  UNL1        0.1022
     19 C         138.2586  140.1244  160.2885 C.3     1  UNL1        0.1374
     20 N         137.2895  140.3326  161.4145 N.3     1  UNL1       -0.3146
     21 H         137.5551  139.7449  162.2047 H       1  UNL1        0.1192
     22 H         136.3503  140.0824  161.1052 H       1  UNL1        0.1192
     23 C         138.0877  140.8779  159.0029 C.2     1  UNL1        0.2402
     24 O         137.1555  140.3596  157.9481 O.2     1  UNL1       -0.2734
     25 N         138.8487  142.1497  158.7719 N.am    1  UNL1       -0.2785
     26 C         139.8114  142.7874  159.7294 C.3     1  UNL1        0.0935
     27 C         140.3383  144.0388  159.0922 C.3     1  UNL1        0.0233
     28 C         139.7015  144.1746  157.7409 C.3     1  UNL1        0.0233
     29 C         138.7808  143.0071  157.5430 C.3     1  UNL1        0.0935
@<TRIPOS>BOND
     1    18    17    1
     2    18     1    1
     3     1     2   ar
     4     2     3   ar
     5     3     6    1
     6     6     7   ar
     7     7     8   ar
     8     8     9   ar
     9     9    13    1
    10    13    14    1
    11    13    15    2
    12    13    16    2
    13     9    10   ar
    14    10    11   ar
    15    11    12    1
    16     3     4   ar
    17     4     5   ar
    18    18    19    1
    19    19    20    1
    20    19    23    1
    21    23    24    2
    22    23    25   am
    23    25    26    1
    24    26    27    1
    25    27    28    1
    26    28    29    1
    27     5     1   ar
    28    29    25    1
    29    11     6   ar
    30    20    21    1
    31    20    22    1
@<TRIPOS>MOLECULE
*****
 29 31 0 0 0
SMALL
GASTEIGER

@<TRIPOS>ATOM
      1 C         141.2907  138.2263  162.1769 C.ar    1  UNL1        0.2379
      2 N         141.3475  139.2109  163.3070 N.ar    1  UNL1       -0.1907
      3 C         141.1328  138.4598  164.5875 C.ar    1  UNL1        0.2041
      4 N         140.9434  137.0108  164.2487 N.ar    1  UNL1       -0.0560
      5 O         141.0410  136.8665  162.7589 O.2     1  UNL1       -0.3370
      6 C         141.1114  139.0533  165.9649 C.ar    1  UNL1        0.0497
      7 C         139.8327  139.6015  166.5256 C.ar    1  UNL1        0.0053
      8 C         139.8113  140.1949  167.9030 C.ar    1  UNL1        0.0185
      9 C         141.0686  140.2402  168.7197 C.ar    1  UNL1        0.1066
     10 C         142.3473  139.6921  168.1591 C.ar    1  UNL1        0.0298
     11 C         142.3687  139.0986  166.7817 C.ar    1  UNL1        0.0620
     12 CL        143.6475  138.5504  166.2210 Cl      1  UNL1       -0.0821
     13 S         141.0471  140.8338  170.0972 S.O2    1  UNL1        0.0105
     14 C         141.0257  141.4273  171.4746 C.3     1  UNL1        0.1816
     15 O         142.0055  141.8988  169.6532 O.2     1  UNL1       -0.1686
     16 O         140.0887  139.7688  170.5412 O.2     1  UNL1       -0.1686
     17 C         140.3837  139.3028  159.9932 C.3     1  UNL1        0.0117
     18 C         141.4549  138.5454  160.7204 C.3     1  UNL1        0.1022
     19 C         142.6902  138.1069  159.9911 C.3     1  UNL1        0.1374
     20 N         143.4094  136.8609  160.4159 N.3     1  UNL1       -0.3146
     21 H         142.9242  136.4419  161.2093 H       1  UNL1        0.1192
     22 H         144.3645  137.0952  160.6867 H       1  UNL1        0.1192
     23 C         143.2063  138.9143  158.8372 C.2     1  UNL1        0.2402
     24 O         143.1924  138.3374  157.4526 O.2     1  UNL1       -0.2734
     25 N         143.7363  140.2985  159.0677 N.am    1  UNL1       -0.2785
     26 C         143.8133  141.0044  160.3890 C.3     1  UNL1        0.0935
     27 C         144.4069  142.3619  160.1553 C.3     1  UNL1        0.0233
     28 C         144.6969  142.4950  158.6897 C.3     1  UNL1        0.0233
     29 C         144.2824  141.2198  158.0175 C.3     1  UNL1        0.0935
@<TRIPOS>BOND
     1    18    17    1
     2    18     1    1
     3     1     2   ar
     4     2     3   ar
     5     3     6    1
     6     6     7   ar
     7     7     8   ar
     8     8     9   ar
     9     9    13    1
    10    13    14    1
    11    13    15    2
    12    13    16    2
    13     9    10   ar
    14    10    11   ar
    15    11    12    1
    16     3     4   ar
    17     4     5   ar
    18    18    19    1
    19    19    20    1
    20    19    23    1
    21    23    24    2
    22    23    25   am
    23    25    26    1
    24    26    27    1
    25    27    28    1
    26    28    29    1
    27     5     1   ar
    28    29    25    1
    29    11     6   ar
    30    20    21    1
    31    20    22    1
