@<TRIPOS>MOLECULE
*****
 39 40 0 0 0
SMALL
GASTEIGER

@<TRIPOS>ATOM
      1 C         141.7640  138.2779  158.8551 C.2     1  UNL1        0.2302
      2 O         142.6084  137.6063  159.8972 O.2     1  UNL1       -0.2744
      3 N         140.4978  138.9772  159.2522 N.am    1  UNL1       -0.2836
      4 H         139.9436  139.4180  158.5682 H       1  UNL1        0.1549
      5 C         140.0759  139.0049  160.6914 C.ar    1  UNL1        0.0503
      6 C         140.6980  139.9897  161.6365 C.ar    1  UNL1        0.0144
      7 C         140.2762  140.0174  163.0756 C.ar    1  UNL1       -0.0002
      8 C         139.2323  139.0602  163.5699 C.ar    1  UNL1        0.0182
      9 C         138.6102  138.0754  162.6248 C.ar    1  UNL1       -0.0002
     10 C         139.0321  138.0477  161.1856 C.ar    1  UNL1        0.0144
     11 C         138.8106  139.0879  165.0090 C.3     1  UNL1        0.2827
     12 O         139.3596  137.7047  165.1966 O.3     1  UNL1       -0.3692
     13 H         139.2208  137.4235  166.1145 H       1  UNL1        0.2112
     14 C         138.3888  139.1156  166.4482 C.3     1  UNL1        0.4311
     15 F         137.9670  139.1433  167.8875 F       1  UNL1       -0.1669
     16 F         139.8258  139.2110  166.8675 F       1  UNL1       -0.1669
     17 F         137.5162  139.0617  166.3061 F       1  UNL1       -0.1669
     18 C         138.2615  140.4711  164.8215 C.3     1  UNL1        0.4311
     19 F         137.7123  141.8544  164.6339 F       1  UNL1       -0.1669
     20 F         137.6030  140.2522  164.2709 F       1  UNL1       -0.1669
     21 F         139.1531  141.3332  165.6652 F       1  UNL1       -0.1669
     22 C         142.1858  138.2502  157.4159 C.3     1  UNL1        0.1081
     23 C         145.5932  140.8369  156.0198 C.ar    1  UNL1        0.1056
     24 C         145.1877  139.6345  155.2199 C.ar    1  UNL1        0.0180
     25 C         144.0519  138.7723  155.6853 C.ar    1  UNL1       -0.0025
     26 C         143.3216  139.1124  156.9505 C.ar    1  UNL1       -0.0133
     27 C         143.7271  140.3148  157.7504 C.ar    1  UNL1       -0.0025
     28 C         144.8629  141.1770  157.2850 C.ar    1  UNL1        0.0180
     29 S         146.7290  141.6991  155.5544 S.O2    1  UNL1        0.0087
     30 O         146.5944  141.1307  154.1728 O.2     1  UNL1       -0.1686
     31 O         146.8635  142.2675  156.9360 O.2     1  UNL1       -0.1686
     32 C         149.1703  141.9350  154.6976 C.3     1  UNL1        0.0276
     33 C         147.8647  142.5613  155.0890 C.3     1  UNL1        0.1560
     34 C         141.4719  137.3603  156.4421 C.3     1  UNL1        0.0985
     35 C         141.8545  135.9144  156.3277 C.2     1  UNL1        0.2233
     36 O         143.0427  135.3913  157.0790 O.2     1  UNL1       -0.2751
     37 N         141.0489  134.9917  155.4618 N.am    1  UNL1       -0.3026
     38 C         141.4315  133.5458  155.3474 C.3     1  UNL1        0.1107
     39 H         140.2690  135.3351  154.9687 H       1  UNL1        0.1495
@<TRIPOS>BOND
     1    32    33    1
     2    33    29    1
     3    29    30    2
     4    29    31    2
     5    29    23    1
     6    23    24   ar
     7    24    25   ar
     8    25    26   ar
     9    26    22    1
    10    22    34    1
    11    34    35    1
    12    35    36    2
    13    35    37   am
    14    37    38    1
    15    22     1    1
    16     1     2    2
    17     1     3   am
    18     3     5    1
    19     5     6   ar
    20     6     7   ar
    21     7     8   ar
    22     8    11    1
    23    11    12    1
    24    11    14    1
    25    14    15    1
    26    14    16    1
    27    14    17    1
    28    11    18    1
    29    18    19    1
    30    18    20    1
    31    18    21    1
    32     8     9   ar
    33     9    10   ar
    34    26    27   ar
    35    27    28   ar
    36    28    23   ar
    37    10     5   ar
    38    37    39    1
    39     3     4    1
    40    12    13    1
@<TRIPOS>MOLECULE
*****
 39 40 0 0 0
SMALL
GASTEIGER

@<TRIPOS>ATOM
      1 C         142.0705  138.0763  159.2016 C.2     1  UNL1        0.2302
      2 O         142.8608  137.4273  160.2990 O.2     1  UNL1       -0.2744
      3 N         140.7935  138.7955  159.5213 N.am    1  UNL1       -0.2836
      4 H         140.2748  139.2215  158.8011 H       1  UNL1        0.1549
      5 C         140.3069  138.8657  160.9385 C.ar    1  UNL1        0.0503
      6 C         139.2006  137.9625  161.3972 C.ar    1  UNL1        0.0144
      7 C         138.7139  138.0326  162.8143 C.ar    1  UNL1       -0.0002
      8 C         139.3336  139.0059  163.7728 C.ar    1  UNL1        0.0182
      9 C         140.4400  139.9091  163.3142 C.ar    1  UNL1       -0.0002
     10 C         140.9266  139.8389  161.8970 C.ar    1  UNL1        0.0144
     11 C         138.8470  139.0761  165.1899 C.3     1  UNL1        0.2827
     12 O         139.3964  137.7041  165.4465 O.3     1  UNL1       -0.3692
     13 H         139.2182  137.4511  166.3658 H       1  UNL1        0.2112
     14 C         138.3604  139.1462  166.6070 C.3     1  UNL1        0.4311
     15 F         137.8738  139.2163  168.0242 F       1  UNL1       -0.1669
     16 F         139.7732  139.3074  167.0842 F       1  UNL1       -0.1669
     17 F         137.4973  139.0567  166.4294 F       1  UNL1       -0.1669
     18 C         138.2976  140.4480  164.9334 C.3     1  UNL1        0.4311
     19 F         137.7481  141.8200  164.6768 F       1  UNL1       -0.1669
     20 F         137.6631  140.2056  164.3648 F       1  UNL1       -0.1669
     21 F         139.1495  141.3447  165.7819 F       1  UNL1       -0.1669
     22 C         142.5571  138.0062  157.7845 C.3     1  UNL1        0.1081
     23 C         141.7450  134.3394  155.3055 C.ar    1  UNL1        0.1056
     24 C         142.9107  134.3637  156.2492 C.ar    1  UNL1        0.0180
     25 C         143.1814  135.5860  157.0755 C.ar    1  UNL1       -0.0025
     26 C         142.2864  136.7839  156.9582 C.ar    1  UNL1       -0.0133
     27 C         141.1207  136.7596  156.0146 C.ar    1  UNL1       -0.0025
     28 C         140.8500  135.5373  155.1882 C.ar    1  UNL1        0.0180
     29 S         141.4743  133.1171  154.4792 S.O2    1  UNL1        0.0087
     30 O         141.7724  132.2490  155.6656 O.2     1  UNL1       -0.1686
     31 O         141.1762  133.9852  153.2928 O.2     1  UNL1       -0.1686
     32 C         140.1895  130.8892  154.1113 C.3     1  UNL1        0.0276
     33 C         141.2036  131.8948  153.6529 C.3     1  UNL1        0.1560
     34 C         143.3144  139.1583  157.1937 C.3     1  UNL1        0.0985
     35 C         143.9211  139.0353  155.8274 C.2     1  UNL1        0.2233
     36 O         145.2635  138.3878  155.6583 O.2     1  UNL1       -0.2751
     37 N         143.1853  139.5599  154.6301 N.am    1  UNL1       -0.3026
     38 C         143.7920  139.4369  153.2637 C.3     1  UNL1        0.1107
     39 H         142.3042  139.9849  154.7410 H       1  UNL1        0.1495
@<TRIPOS>BOND
     1    32    33    1
     2    33    29    1
     3    29    30    2
     4    29    31    2
     5    29    23    1
     6    23    24   ar
     7    24    25   ar
     8    25    26   ar
     9    26    22    1
    10    22    34    1
    11    34    35    1
    12    35    36    2
    13    35    37   am
    14    37    38    1
    15    22     1    1
    16     1     2    2
    17     1     3   am
    18     3     5    1
    19     5     6   ar
    20     6     7   ar
    21     7     8   ar
    22     8    11    1
    23    11    12    1
    24    11    14    1
    25    14    15    1
    26    14    16    1
    27    14    17    1
    28    11    18    1
    29    18    19    1
    30    18    20    1
    31    18    21    1
    32     8     9   ar
    33     9    10   ar
    34    26    27   ar
    35    27    28   ar
    36    28    23   ar
    37    10     5   ar
    38    37    39    1
    39     3     4    1
    40    12    13    1
@<TRIPOS>MOLECULE
*****
 39 40 0 0 0
SMALL
GASTEIGER

@<TRIPOS>ATOM
      1 C         141.3679  139.1116  159.0642 C.2     1  UNL1        0.2302
      2 O         141.8447  140.2749  159.8824 O.2     1  UNL1       -0.2744
      3 N         140.4330  138.1047  159.6658 N.am    1  UNL1       -0.2836
      4 H         140.1200  137.3411  159.1288 H       1  UNL1        0.1549
      5 C         139.9749  138.2610  161.0856 C.ar    1  UNL1        0.0503
      6 C         140.8399  137.7750  162.2106 C.ar    1  UNL1        0.0144
      7 C         140.3819  137.9313  163.6303 C.ar    1  UNL1       -0.0002
      8 C         139.0588  138.5737  163.9252 C.ar    1  UNL1        0.0182
      9 C         138.1937  139.0596  162.8002 C.ar    1  UNL1       -0.0002
     10 C         138.6518  138.9033  161.3804 C.ar    1  UNL1        0.0144
     11 C         138.6007  138.7300  165.3449 C.3     1  UNL1        0.2827
     12 O         138.5974  137.2389  165.5080 O.3     1  UNL1       -0.3692
     13 H         138.3174  137.0128  166.4088 H       1  UNL1        0.2112
     14 C         138.1427  138.8863  166.7647 C.3     1  UNL1        0.4311
     15 F         137.6847  139.0426  168.1845 F       1  UNL1       -0.1669
     16 F         139.5171  139.3403  167.1581 F       1  UNL1       -0.1669
     17 F         137.3042  138.6315  166.6363 F       1  UNL1       -0.1669
     18 C         138.6040  140.2210  165.1818 C.3     1  UNL1        0.4311
     19 F         138.6073  141.7122  165.0187 F       1  UNL1       -0.1669
     20 F         137.7309  140.3413  165.2704 F       1  UNL1       -0.1669
     21 F         140.0506  140.5606  164.9764 F       1  UNL1       -0.1669
     22 C         141.8260  138.9553  157.6445 C.3     1  UNL1        0.1081
     23 C         141.6765  134.9176  155.6635 C.ar    1  UNL1        0.1056
     24 C         140.6355  135.9490  155.3435 C.ar    1  UNL1        0.0180
     25 C         140.6853  137.2949  156.0038 C.ar    1  UNL1       -0.0025
     26 C         141.7761  137.6094  156.9842 C.ar    1  UNL1       -0.0133
     27 C         142.8171  136.5780  157.3042 C.ar    1  UNL1       -0.0025
     28 C         142.7673  135.2321  156.6439 C.ar    1  UNL1        0.0180
     29 S         141.6266  133.5717  155.0032 S.O2    1  UNL1        0.0087
     30 O         141.2927  134.2257  153.6953 O.2     1  UNL1       -0.1686
     31 O         141.9605  132.9176  156.3112 O.2     1  UNL1       -0.1686
     32 C         142.3674  131.0833  154.9082 C.3     1  UNL1        0.0276
     33 C         141.5768  132.2257  154.3429 C.3     1  UNL1        0.1560
     34 C         142.3339  140.1450  156.8851 C.3     1  UNL1        0.0985
     35 C         143.6856  140.7143  157.1996 C.2     1  UNL1        0.2233
     36 O         144.9244  139.9920  156.7596 O.2     1  UNL1       -0.2751
     37 N         143.7984  142.0059  157.9540 N.am    1  UNL1       -0.3026
     38 C         145.1500  142.5752  158.2685 C.3     1  UNL1        0.1107
     39 H         142.9852  142.4799  158.2427 H       1  UNL1        0.1495
@<TRIPOS>BOND
     1    32    33    1
     2    33    29    1
     3    29    30    2
     4    29    31    2
     5    29    23    1
     6    23    24   ar
     7    24    25   ar
     8    25    26   ar
     9    26    22    1
    10    22    34    1
    11    34    35    1
    12    35    36    2
    13    35    37   am
    14    37    38    1
    15    22     1    1
    16     1     2    2
    17     1     3   am
    18     3     5    1
    19     5     6   ar
    20     6     7   ar
    21     7     8   ar
    22     8    11    1
    23    11    12    1
    24    11    14    1
    25    14    15    1
    26    14    16    1
    27    14    17    1
    28    11    18    1
    29    18    19    1
    30    18    20    1
    31    18    21    1
    32     8     9   ar
    33     9    10   ar
    34    26    27   ar
    35    27    28   ar
    36    28    23   ar
    37    10     5   ar
    38    37    39    1
    39     3     4    1
    40    12    13    1
@<TRIPOS>MOLECULE
*****
 39 40 0 0 0
SMALL
GASTEIGER

@<TRIPOS>ATOM
      1 C         141.3360  141.3541  161.5971 C.2     1  UNL1        0.2302
      2 O         142.6283  141.3425  162.3586 O.2     1  UNL1       -0.2744
      3 N         140.0381  141.1439  162.3192 N.am    1  UNL1       -0.2836
      4 H         139.1899  141.1515  161.8194 H       1  UNL1        0.1549
      5 C         140.0326  140.9221  163.8027 C.ar    1  UNL1        0.0503
      6 C         139.8987  142.0895  164.7351 C.ar    1  UNL1        0.0144
      7 C         139.8932  141.8677  166.2185 C.ar    1  UNL1       -0.0002
      8 C         140.0215  140.4785  166.7697 C.ar    1  UNL1        0.0182
      9 C         140.1554  139.3111  165.8374 C.ar    1  UNL1       -0.0002
     10 C         140.1609  139.5329  164.3538 C.ar    1  UNL1        0.0144
     11 C         140.0160  140.2567  168.2532 C.3     1  UNL1        0.2827
     12 O         138.7831  139.4125  168.1224 O.3     1  UNL1       -0.3692
     13 H         138.5140  139.0953  168.9987 H       1  UNL1        0.2112
     14 C         140.0105  140.0350  169.7367 C.3     1  UNL1        0.4311
     15 F         140.0049  139.8132  171.2202 F       1  UNL1       -0.1669
     16 F         138.7845  140.8904  169.8600 F       1  UNL1       -0.1669
     17 F         140.7286  139.5177  169.7712 F       1  UNL1       -0.1669
     18 C         141.2489  141.1010  168.3840 C.3     1  UNL1        0.4311
     19 F         142.4818  141.9453  168.5148 F       1  UNL1       -0.1669
     20 F         140.8599  141.8027  168.7594 F       1  UNL1       -0.1669
     21 F         142.3381  140.2443  167.8099 F       1  UNL1       -0.1669
     22 C         141.3415  141.5759  160.1136 C.3     1  UNL1        0.1081
     23 C         142.7289  138.3030  157.3544 C.ar    1  UNL1        0.1056
     24 C         142.4938  138.0103  158.8066 C.ar    1  UNL1        0.0180
     25 C         142.0314  139.1012  159.7263 C.ar    1  UNL1       -0.0025
     26 C         141.8040  140.4850  159.1939 C.ar    1  UNL1       -0.0133
     27 C         142.0391  140.7777  157.7417 C.ar    1  UNL1       -0.0025
     28 C         142.5015  139.6868  156.8219 C.ar    1  UNL1        0.0180
     29 S         143.1913  137.2121  156.4346 S.O2    1  UNL1        0.0087
     30 O         142.0306  136.3622  156.8591 O.2     1  UNL1       -0.1686
     31 O         144.3521  138.0620  156.0101 O.2     1  UNL1       -0.1686
     32 C         143.7598  134.7116  156.0169 C.3     1  UNL1        0.0276
     33 C         143.6538  136.1211  155.5149 C.3     1  UNL1        0.1560
     34 C         140.8846  142.8887  159.5499 C.3     1  UNL1        0.0985
     35 C         140.9654  144.1323  160.3848 C.2     1  UNL1        0.2233
     36 O         142.2993  144.6429  160.8427 O.2     1  UNL1       -0.2751
     37 N         139.7120  144.8652  160.7618 N.am    1  UNL1       -0.3026
     38 C         139.7927  146.1087  161.5967 C.3     1  UNL1        0.1107
     39 H         138.8365  144.5300  160.4613 H       1  UNL1        0.1495
@<TRIPOS>BOND
     1    32    33    1
     2    33    29    1
     3    29    30    2
     4    29    31    2
     5    29    23    1
     6    23    24   ar
     7    24    25   ar
     8    25    26   ar
     9    26    22    1
    10    22    34    1
    11    34    35    1
    12    35    36    2
    13    35    37   am
    14    37    38    1
    15    22     1    1
    16     1     2    2
    17     1     3   am
    18     3     5    1
    19     5     6   ar
    20     6     7   ar
    21     7     8   ar
    22     8    11    1
    23    11    12    1
    24    11    14    1
    25    14    15    1
    26    14    16    1
    27    14    17    1
    28    11    18    1
    29    18    19    1
    30    18    20    1
    31    18    21    1
    32     8     9   ar
    33     9    10   ar
    34    26    27   ar
    35    27    28   ar
    36    28    23   ar
    37    10     5   ar
    38    37    39    1
    39     3     4    1
    40    12    13    1
@<TRIPOS>MOLECULE
*****
 39 40 0 0 0
SMALL
GASTEIGER

@<TRIPOS>ATOM
      1 C         140.7591  138.8008  158.8850 C.2     1  UNL1        0.2302
      2 O         141.8344  139.4665  159.6916 O.2     1  UNL1       -0.2744
      3 N         139.5033  138.3275  159.5550 N.am    1  UNL1       -0.2836
      4 H         138.7975  137.8905  159.0256 H       1  UNL1        0.1549
      5 C         139.3228  138.5199  161.0317 C.ar    1  UNL1        0.0503
      6 C         138.2505  139.4356  161.5431 C.ar    1  UNL1        0.0144
      7 C         138.0699  139.6280  163.0197 C.ar    1  UNL1       -0.0002
      8 C         138.9618  138.9047  163.9849 C.ar    1  UNL1        0.0182
      9 C         140.0341  137.9891  163.4735 C.ar    1  UNL1       -0.0002
     10 C         140.2146  137.7966  161.9968 C.ar    1  UNL1        0.0144
     11 C         138.7813  139.0972  165.4615 C.3     1  UNL1        0.2827
     12 O         138.6222  137.6158  165.6351 O.3     1  UNL1       -0.3692
     13 H         138.4779  137.4138  166.5728 H       1  UNL1        0.2112
     14 C         138.6008  139.2896  166.9381 C.3     1  UNL1        0.4311
     15 F         138.4202  139.4821  168.4147 F       1  UNL1       -0.1669
     16 F         137.2207  138.7095  166.8450 F       1  UNL1       -0.1669
     17 F         139.3966  139.6435  167.0990 F       1  UNL1       -0.1669
     18 C         138.9404  140.5786  165.2879 C.3     1  UNL1        0.4311
     19 F         139.0994  142.0600  165.1143 F       1  UNL1       -0.1669
     20 F         138.0958  140.7966  165.4422 F       1  UNL1       -0.1669
     21 F         140.3958  140.7526  164.9697 F       1  UNL1       -0.1669
     22 C         140.9396  138.6084  157.4084 C.3     1  UNL1        0.1081
     23 C         142.4375  134.6741  155.8184 C.ar    1  UNL1        0.1056
     24 C         141.1730  135.2702  155.2748 C.ar    1  UNL1        0.0180
     25 C         140.6737  136.5816  155.8048 C.ar    1  UNL1       -0.0025
     26 C         141.4389  137.2969  156.8784 C.ar    1  UNL1       -0.0133
     27 C         142.7034  136.7009  157.4220 C.ar    1  UNL1       -0.0025
     28 C         143.2027  135.3894  156.8920 C.ar    1  UNL1        0.0180
     29 S         142.9368  133.3627  155.2884 S.O2    1  UNL1        0.0087
     30 O         144.1095  133.4323  156.2211 O.2     1  UNL1       -0.1686
     31 O         141.7641  133.2931  154.3558 O.2     1  UNL1       -0.1686
     32 C         144.4548  131.2684  155.5326 C.3     1  UNL1        0.0276
     33 C         143.4361  132.0513  154.7585 C.3     1  UNL1        0.1560
     34 C         140.6208  139.7274  156.4618 C.3     1  UNL1        0.0985
     35 C         139.1957  140.0131  156.0910 C.2     1  UNL1        0.2233
     36 O         138.1052  139.8253  157.1036 O.2     1  UNL1       -0.2751
     37 N         138.8612  140.4865  154.7074 N.am    1  UNL1       -0.3026
     38 C         137.4361  140.7722  154.3366 C.3     1  UNL1        0.1107
     39 H         139.5770  140.6097  154.0428 H       1  UNL1        0.1495
@<TRIPOS>BOND
     1    32    33    1
     2    33    29    1
     3    29    30    2
     4    29    31    2
     5    29    23    1
     6    23    24   ar
     7    24    25   ar
     8    25    26   ar
     9    26    22    1
    10    22    34    1
    11    34    35    1
    12    35    36    2
    13    35    37   am
    14    37    38    1
    15    22     1    1
    16     1     2    2
    17     1     3   am
    18     3     5    1
    19     5     6   ar
    20     6     7   ar
    21     7     8   ar
    22     8    11    1
    23    11    12    1
    24    11    14    1
    25    14    15    1
    26    14    16    1
    27    14    17    1
    28    11    18    1
    29    18    19    1
    30    18    20    1
    31    18    21    1
    32     8     9   ar
    33     9    10   ar
    34    26    27   ar
    35    27    28   ar
    36    28    23   ar
    37    10     5   ar
    38    37    39    1
    39     3     4    1
    40    12    13    1
@<TRIPOS>MOLECULE
*****
 39 40 0 0 0
SMALL
GASTEIGER

@<TRIPOS>ATOM
      1 C         143.1143  140.9526  161.6727 C.2     1  UNL1        0.2302
      2 O         144.2069  140.4617  162.5756 O.2     1  UNL1       -0.2744
      3 N         141.7427  141.2062  162.2245 N.am    1  UNL1       -0.2836
      4 H         141.0255  141.5284  161.6319 H       1  UNL1        0.1549
      5 C         141.4638  140.9690  163.6792 C.ar    1  UNL1        0.0503
      6 C         141.2956  139.5695  164.1920 C.ar    1  UNL1        0.0144
      7 C         141.0168  139.3322  165.6466 C.ar    1  UNL1       -0.0002
      8 C         140.9060  140.4944  166.5884 C.ar    1  UNL1        0.0182
      9 C         141.0742  141.8940  166.0756 C.ar    1  UNL1       -0.0002
     10 C         141.3531  142.1312  164.6209 C.ar    1  UNL1        0.0144
     11 C         140.6271  140.2572  168.0430 C.3     1  UNL1        0.2827
     12 O         139.2799  139.6980  167.6935 O.3     1  UNL1       -0.3692
     13 H         138.8194  139.4328  168.5050 H       1  UNL1        0.2112
     14 C         140.3483  140.0199  169.4976 C.3     1  UNL1        0.4311
     15 F         140.0693  139.7826  170.9523 F       1  UNL1       -0.1669
     16 F         139.2336  141.0223  169.4474 F       1  UNL1       -0.1669
     17 F         140.9814  139.4153  169.6318 F       1  UNL1       -0.1669
     18 C         141.9744  140.8163  168.3925 C.3     1  UNL1        0.4311
     19 F         143.3218  141.3754  168.7420 F       1  UNL1       -0.1669
     20 F         142.4569  140.1552  168.0537 F       1  UNL1       -0.1669
     21 F         141.6624  142.1125  169.0797 F       1  UNL1       -0.1669
     22 C         143.3932  141.1898  160.2181 C.3     1  UNL1        0.1081
     23 C         142.9382  137.8274  157.2623 C.ar    1  UNL1        0.1056
     24 C         143.3285  139.1957  156.7875 C.ar    1  UNL1        0.0180
     25 C         143.4802  140.3165  157.7728 C.ar    1  UNL1       -0.0025
     26 C         143.2415  140.0690  159.2328 C.ar    1  UNL1       -0.0133
     27 C         142.8512  138.7007  159.7076 C.ar    1  UNL1       -0.0025
     28 C         142.6996  137.5799  158.7223 C.ar    1  UNL1        0.0180
     29 S         142.7865  136.7066  156.2770 S.O2    1  UNL1        0.0087
     30 O         144.2567  136.7646  155.9847 O.2     1  UNL1       -0.1686
     31 O         141.3164  136.6486  156.5692 O.2     1  UNL1       -0.1686
     32 C         142.7752  134.1633  155.7464 C.3     1  UNL1        0.0276
     33 C         142.6349  135.5858  155.2917 C.3     1  UNL1        0.1560
     34 C         143.8238  142.5478  159.7488 C.3     1  UNL1        0.0985
     35 C         142.7951  143.5694  159.3639 C.2     1  UNL1        0.2233
     36 O         141.5679  143.7525  160.2068 O.2     1  UNL1       -0.2751
     37 N         142.9935  144.4079  158.1360 N.am    1  UNL1       -0.3026
     38 C         141.9648  145.4294  157.7511 C.3     1  UNL1        0.1107
     39 H         143.7990  144.2877  157.5828 H       1  UNL1        0.1495
@<TRIPOS>BOND
     1    32    33    1
     2    33    29    1
     3    29    30    2
     4    29    31    2
     5    29    23    1
     6    23    24   ar
     7    24    25   ar
     8    25    26   ar
     9    26    22    1
    10    22    34    1
    11    34    35    1
    12    35    36    2
    13    35    37   am
    14    37    38    1
    15    22     1    1
    16     1     2    2
    17     1     3   am
    18     3     5    1
    19     5     6   ar
    20     6     7   ar
    21     7     8   ar
    22     8    11    1
    23    11    12    1
    24    11    14    1
    25    14    15    1
    26    14    16    1
    27    14    17    1
    28    11    18    1
    29    18    19    1
    30    18    20    1
    31    18    21    1
    32     8     9   ar
    33     9    10   ar
    34    26    27   ar
    35    27    28   ar
    36    28    23   ar
    37    10     5   ar
    38    37    39    1
    39     3     4    1
    40    12    13    1
@<TRIPOS>MOLECULE
*****
 39 40 0 0 0
SMALL
GASTEIGER

@<TRIPOS>ATOM
      1 C         141.9292  138.2129  157.7592 C.2     1  UNL1        0.2302
      2 O         140.8877  138.3393  158.8313 O.2     1  UNL1       -0.2744
      3 N         143.2633  138.8776  157.9277 N.am    1  UNL1       -0.2836
      4 H         143.9469  138.7947  157.2240 H       1  UNL1        0.1549
      5 C         143.5559  139.6686  159.1682 C.ar    1  UNL1        0.0503
      6 C         143.9077  138.9611  160.4432 C.ar    1  UNL1        0.0144
      7 C         144.2002  139.7519  161.6837 C.ar    1  UNL1       -0.0002
      8 C         144.1411  141.2504  161.6492 C.ar    1  UNL1        0.0182
      9 C         143.7893  141.9579  160.3742 C.ar    1  UNL1       -0.0002
     10 C         143.4967  141.1670  159.1337 C.ar    1  UNL1        0.0144
     11 C         144.4336  142.0413  162.8897 C.3     1  UNL1        0.2827
     12 O         145.9046  141.9020  162.6316 O.3     1  UNL1       -0.3692
     13 H         146.4001  142.3542  163.3322 H       1  UNL1        0.2112
     14 C         144.7262  142.8322  164.1302 C.3     1  UNL1        0.4311
     15 F         145.0188  143.6231  165.3708 F       1  UNL1       -0.1669
     16 F         144.9292  141.5578  164.8948 F       1  UNL1       -0.1669
     17 F         144.6283  143.6360  163.7714 F       1  UNL1       -0.1669
     18 C         142.9626  142.1806  163.1479 C.3     1  UNL1        0.4311
     19 F         141.4915  142.3198  163.4061 F       1  UNL1       -0.1669
     20 F         142.8528  141.4077  163.5665 F       1  UNL1       -0.1669
     21 F         142.6131  143.5103  162.5482 F       1  UNL1       -0.1669
     22 C         141.6366  137.4220  156.5188 C.3     1  UNL1        0.1081
     23 C         142.6677  133.0452  156.3455 C.ar    1  UNL1        0.1056
     24 C         141.6114  133.6033  155.4386 C.ar    1  UNL1        0.0180
     25 C         141.2677  135.0623  155.4963 C.ar    1  UNL1       -0.0025
     26 C         141.9803  135.9631  156.4610 C.ar    1  UNL1       -0.0133
     27 C         143.0366  135.4049  157.3680 C.ar    1  UNL1       -0.0025
     28 C         143.3803  133.9460  157.3102 C.ar    1  UNL1        0.0180
     29 S         143.0114  131.5862  156.2878 S.O2    1  UNL1        0.0087
     30 O         143.9953  131.7738  157.4043 O.2     1  UNL1       -0.1686
     31 O         142.0274  131.3986  155.1712 O.2     1  UNL1       -0.1686
     32 C         143.7902  129.4095  157.4731 C.3     1  UNL1        0.0276
     33 C         143.3551  130.1273  156.2300 C.3     1  UNL1        0.1560
     34 C         141.0003  138.0900  155.3361 C.3     1  UNL1        0.0985
     35 C         139.5068  138.2003  155.2507 C.2     1  UNL1        0.2233
     36 O         138.7475  138.9402  156.3118 O.2     1  UNL1       -0.2751
     37 N         138.7726  137.5707  154.1041 N.am    1  UNL1       -0.3026
     38 C         137.2791  137.6810  154.0188 C.3     1  UNL1        0.1107
     39 H         139.2709  137.0850  153.4077 H       1  UNL1        0.1495
@<TRIPOS>BOND
     1    32    33    1
     2    33    29    1
     3    29    30    2
     4    29    31    2
     5    29    23    1
     6    23    24   ar
     7    24    25   ar
     8    25    26   ar
     9    26    22    1
    10    22    34    1
    11    34    35    1
    12    35    36    2
    13    35    37   am
    14    37    38    1
    15    22     1    1
    16     1     2    2
    17     1     3   am
    18     3     5    1
    19     5     6   ar
    20     6     7   ar
    21     7     8   ar
    22     8    11    1
    23    11    12    1
    24    11    14    1
    25    14    15    1
    26    14    16    1
    27    14    17    1
    28    11    18    1
    29    18    19    1
    30    18    20    1
    31    18    21    1
    32     8     9   ar
    33     9    10   ar
    34    26    27   ar
    35    27    28   ar
    36    28    23   ar
    37    10     5   ar
    38    37    39    1
    39     3     4    1
    40    12    13    1
@<TRIPOS>MOLECULE
*****
 39 40 0 0 0
SMALL
GASTEIGER

@<TRIPOS>ATOM
      1 C         140.5025  141.2103  162.3489 C.2     1  UNL1        0.2302
      2 O         141.8681  140.6770  162.6666 O.2     1  UNL1       -0.2744
      3 N         139.5635  141.5770  163.4596 N.am    1  UNL1       -0.2836
      4 H         138.6672  141.9269  163.2512 H       1  UNL1        0.1549
      5 C         139.9901  141.4104  164.8881 C.ar    1  UNL1        0.0503
      6 C         140.3523  142.6133  165.7077 C.ar    1  UNL1        0.0144
      7 C         140.7788  142.4469  167.1361 C.ar    1  UNL1       -0.0002
      8 C         140.8432  141.0774  167.7449 C.ar    1  UNL1        0.0182
      9 C         140.4810  139.8745  166.9253 C.ar    1  UNL1       -0.0002
     10 C         140.0544  140.0410  165.4968 C.ar    1  UNL1        0.0144
     11 C         141.2698  140.9110  169.1733 C.3     1  UNL1        0.2827
     12 O         142.7070  141.0116  168.7558 O.3     1  UNL1       -0.3692
     13 H         143.2768  140.9317  169.5367 H       1  UNL1        0.2112
     14 C         141.6963  140.7445  170.6016 C.3     1  UNL1        0.4311
     15 F         142.1229  140.5780  172.0301 F       1  UNL1       -0.1669
     16 F         142.0091  139.3010  170.3400 F       1  UNL1       -0.1669
     17 F         141.5438  141.5785  170.8578 F       1  UNL1       -0.1669
     18 C         139.8326  140.8104  169.5907 C.3     1  UNL1        0.4311
     19 F         138.3953  140.7097  170.0082 F       1  UNL1       -0.1669
     20 F         139.7576  139.9316  169.5088 F       1  UNL1       -0.1669
     21 F         139.4376  142.2288  169.8773 F       1  UNL1       -0.1669
     22 C         140.0760  141.3768  160.9205 C.3     1  UNL1        0.1081
     23 C         141.5610  138.5155  157.7808 C.ar    1  UNL1        0.1056
     24 C         140.2568  138.2564  158.4750 C.ar    1  UNL1        0.0180
     25 C         139.7618  139.2101  159.5216 C.ar    1  UNL1       -0.0025
     26 C         140.5710  140.4230  159.8739 C.ar    1  UNL1       -0.0133
     27 C         141.8751  140.6821  159.1797 C.ar    1  UNL1       -0.0025
     28 C         142.3701  139.7284  158.1331 C.ar    1  UNL1        0.0180
     29 S         142.0560  137.5618  156.7342 S.O2    1  UNL1        0.0087
     30 O         140.6491  137.1049  156.4852 O.2     1  UNL1       -0.1686
     31 O         143.4628  138.0186  156.9832 O.2     1  UNL1       -0.1686
     32 C         143.9759  136.1402  155.7129 C.3     1  UNL1        0.0276
     33 C         142.5510  136.6080  155.6876 C.3     1  UNL1        0.1560
     34 C         139.1545  142.4970  160.5387 C.3     1  UNL1        0.0985
     35 C         139.6464  143.9139  160.5623 C.2     1  UNL1        0.2233
     36 O         140.5646  144.4071  159.4837 O.2     1  UNL1       -0.2751
     37 N         139.2199  144.8376  161.6646 N.am    1  UNL1       -0.3026
     38 C         139.7117  146.2545  161.6882 C.3     1  UNL1        0.1107
     39 H         138.6172  144.5139  162.3726 H       1  UNL1        0.1495
@<TRIPOS>BOND
     1    32    33    1
     2    33    29    1
     3    29    30    2
     4    29    31    2
     5    29    23    1
     6    23    24   ar
     7    24    25   ar
     8    25    26   ar
     9    26    22    1
    10    22    34    1
    11    34    35    1
    12    35    36    2
    13    35    37   am
    14    37    38    1
    15    22     1    1
    16     1     2    2
    17     1     3   am
    18     3     5    1
    19     5     6   ar
    20     6     7   ar
    21     7     8   ar
    22     8    11    1
    23    11    12    1
    24    11    14    1
    25    14    15    1
    26    14    16    1
    27    14    17    1
    28    11    18    1
    29    18    19    1
    30    18    20    1
    31    18    21    1
    32     8     9   ar
    33     9    10   ar
    34    26    27   ar
    35    27    28   ar
    36    28    23   ar
    37    10     5   ar
    38    37    39    1
    39     3     4    1
    40    12    13    1
@<TRIPOS>MOLECULE
*****
 39 40 0 0 0
SMALL
GASTEIGER

@<TRIPOS>ATOM
      1 C         140.7347  141.6821  161.7418 C.2     1  UNL1        0.2302
      2 O         139.5384  142.0618  162.5634 O.2     1  UNL1       -0.2744
      3 N         141.9865  141.2044  162.4160 N.am    1  UNL1       -0.2836
      4 H         142.7716  140.9552  161.8769 H       1  UNL1        0.1549
      5 C         142.0421  141.1063  163.9119 C.ar    1  UNL1        0.0503
      6 C         141.4514  139.9161  164.6079 C.ar    1  UNL1        0.0144
      7 C         141.5070  139.8180  166.1036 C.ar    1  UNL1       -0.0002
      8 C         142.1533  140.9102  166.9034 C.ar    1  UNL1        0.0182
      9 C         142.7440  142.1004  166.2074 C.ar    1  UNL1       -0.0002
     10 C         142.6884  142.1985  164.7115 C.ar    1  UNL1        0.0144
     11 C         142.2089  140.8121  168.3991 C.3     1  UNL1        0.2827
     12 O         143.0370  139.5665  168.2867 O.3     1  UNL1       -0.3692
     13 H         143.2494  139.2382  169.1744 H       1  UNL1        0.2112
     14 C         142.2644  140.7140  169.8948 C.3     1  UNL1        0.4311
     15 F         142.3201  140.6159  171.3906 F       1  UNL1       -0.1669
     16 F         143.7010  141.1448  169.8697 F       1  UNL1       -0.1669
     17 F         141.4265  140.4545  170.0173 F       1  UNL1       -0.1669
     18 C         141.3807  142.0577  168.5116 C.3     1  UNL1        0.4311
     19 F         140.5526  143.3033  168.6240 F       1  UNL1       -0.1669
     20 F         142.0271  142.5916  168.7974 F       1  UNL1       -0.1669
     21 F         140.0116  141.6236  168.0790 F       1  UNL1       -0.1669
     22 C         140.6790  141.7802  160.2461 C.3     1  UNL1        0.1081
     23 C         141.8319  138.2427  157.7148 C.ar    1  UNL1        0.1056
     24 C         142.8610  139.2713  158.0794 C.ar    1  UNL1        0.0180
     25 C         142.4767  140.4505  158.9231 C.ar    1  UNL1       -0.0025
     26 C         141.0633  140.6010  159.4023 C.ar    1  UNL1       -0.0133
     27 C         140.0342  139.5724  159.0378 C.ar    1  UNL1       -0.0025
     28 C         140.4185  138.3933  158.1940 C.ar    1  UNL1        0.0180
     29 S         142.2162  137.0636  156.8711 S.O2    1  UNL1        0.0087
     30 O         143.2292  136.6574  157.9001 O.2     1  UNL1       -0.1686
     31 O         141.2032  137.4698  155.8420 O.2     1  UNL1       -0.1686
     32 C         142.6234  134.5093  156.6261 C.3     1  UNL1        0.0276
     33 C         142.6005  135.8844  156.0273 C.3     1  UNL1        0.1560
     34 C         140.2391  143.0574  159.5941 C.3     1  UNL1        0.0985
     35 C         140.5275  144.3738  160.2528 C.2     1  UNL1        0.2233
     36 O         141.8295  145.0724  159.9946 O.2     1  UNL1       -0.2751
     37 N         139.5138  144.9917  161.1698 N.am    1  UNL1       -0.3026
     38 C         139.8022  146.3081  161.8285 C.3     1  UNL1        0.1107
     39 H         138.6592  144.5332  161.3393 H       1  UNL1        0.1495
@<TRIPOS>BOND
     1    32    33    1
     2    33    29    1
     3    29    30    2
     4    29    31    2
     5    29    23    1
     6    23    24   ar
     7    24    25   ar
     8    25    26   ar
     9    26    22    1
    10    22    34    1
    11    34    35    1
    12    35    36    2
    13    35    37   am
    14    37    38    1
    15    22     1    1
    16     1     2    2
    17     1     3   am
    18     3     5    1
    19     5     6   ar
    20     6     7   ar
    21     7     8   ar
    22     8    11    1
    23    11    12    1
    24    11    14    1
    25    14    15    1
    26    14    16    1
    27    14    17    1
    28    11    18    1
    29    18    19    1
    30    18    20    1
    31    18    21    1
    32     8     9   ar
    33     9    10   ar
    34    26    27   ar
    35    27    28   ar
    36    28    23   ar
    37    10     5   ar
    38    37    39    1
    39     3     4    1
    40    12    13    1
