@<TRIPOS>MOLECULE
*****
 37 40 0 0 0
SMALL
GASTEIGER

@<TRIPOS>ATOM
      1 C         139.4553  139.6332  168.0650 C.3     1  UNL1        0.0344
      2 C         139.6516  140.8703  167.2398 C.ar    1  UNL1        0.0191
      3 C         140.2518  142.0975  167.8591 C.ar    1  UNL1        0.1693
      4 C         140.4481  143.3347  167.0339 C.ar    1  UNL1        0.0393
      5 C         140.0443  143.3446  165.5894 C.ar    1  UNL1        0.0011
      6 C         139.4441  142.1173  164.9700 C.ar    1  UNL1        0.0088
      7 C         139.2478  140.8802  165.7952 C.ar    1  UNL1        0.0507
      8 C         138.6358  139.8295  164.9169 C.2     1  UNL1        0.2494
      9 O         138.2699  138.4357  165.3335 O.2     1  UNL1       -0.2699
     10 N         138.4538  140.4172  163.5489 N.am    1  UNL1       -0.2620
     11 C         138.9534  141.8312  163.5817 C.3     1  UNL1        0.1753
     12 C         138.9610  142.7906  162.4287 C.2     1  UNL1        0.2448
     13 O         137.6748  143.1572  161.7495 O.2     1  UNL1       -0.2729
     14 N         140.2548  143.3835  161.9548 N.am    1  UNL1       -0.3059
     15 H         141.0990  143.1430  162.4006 H       1  UNL1        0.1494
     16 C         140.2624  144.3430  160.8018 C.3     1  UNL1        0.0569
     17 C         140.4127  143.1952  159.8478 C.3     1  UNL1        0.0196
     18 C         140.1121  145.4907  161.7559 C.3     1  UNL1        0.0196
     19 C         140.2700  145.3023  159.6489 C.3     1  UNL1        0.0196
     20 O         140.6557  142.0877  169.3037 O.3     1  UNL1       -0.3446
     21 S         142.0683  142.4125  169.6898 S.O2    1  UNL1        0.1337
     22 C         143.4810  142.7373  170.0758 C.3     1  UNL1        0.2230
     23 O         141.6024  143.6927  170.3174 O.2     1  UNL1       -0.1360
     24 O         142.5343  141.1323  169.0621 O.2     1  UNL1       -0.1360
     25 C         137.8741  139.7144  162.3573 C.3     1  UNL1        0.1212
     26 C         138.6153  139.7132  161.0533 C.ar    1  UNL1       -0.0023
     27 C         137.9198  140.1407  159.7948 C.ar    1  UNL1       -0.0026
     28 C         138.6611  140.1396  158.4908 C.ar    1  UNL1       -0.0003
     29 C         140.0978  139.7109  158.4451 C.ar    1  UNL1       -0.0000
     30 C         140.7933  139.2834  159.7035 C.ar    1  UNL1       -0.0003
     31 C         140.0521  139.2846  161.0076 C.ar    1  UNL1       -0.0024
     32 C         140.7475  138.8571  162.2659 C.ar    1  UNL1       -0.0003
     33 C         141.6952  139.7940  162.9545 C.ar    1  UNL1       -0.0000
     34 C         142.3907  139.3665  164.2128 C.ar    1  UNL1       -0.0000
     35 C         142.1385  138.0020  164.7827 C.ar    1  UNL1       -0.0000
     36 C         141.1909  137.0651  164.0942 C.ar    1  UNL1       -0.0000
     37 C         140.4953  137.4927  162.8357 C.ar    1  UNL1       -0.0000
@<TRIPOS>BOND
     1     1     2    1
     2     2     3   ar
     3     3    20    1
     4    20    21    1
     5    21    22    1
     6    21    23    2
     7    21    24    2
     8     3     4   ar
     9     4     5   ar
    10     5     6   ar
    11     6     7   ar
    12     7     8    1
    13     8     9    2
    14     8    10   am
    15    10    25    1
    16    25    26    1
    17    26    27   ar
    18    27    28   ar
    19    28    29   ar
    20    29    30   ar
    21    30    31   ar
    22    31    32    1
    23    32    33   ar
    24    33    34   ar
    25    34    35   ar
    26    35    36   ar
    27    36    37   ar
    28    10    11    1
    29    11    12    1
    30    12    13    2
    31    12    14   am
    32    14    16    1
    33    16    17    1
    34    16    18    1
    35    16    19    1
    36     7     2   ar
    37    31    26   ar
    38    37    32   ar
    39    11     6    1
    40    14    15    1
@<TRIPOS>MOLECULE
*****
 37 40 0 0 0
SMALL
GASTEIGER

@<TRIPOS>ATOM
      1 C         139.4573  146.4224  161.1804 C.3     1  UNL1        0.0344
      2 C         140.3204  145.2109  160.9878 C.ar    1  UNL1        0.0191
      3 C         140.8883  144.9021  159.6342 C.ar    1  UNL1        0.1693
      4 C         141.7515  143.6906  159.4416 C.ar    1  UNL1        0.0393
      5 C         142.0467  142.7878  160.6025 C.ar    1  UNL1        0.0011
      6 C         141.4788  143.0966  161.9560 C.ar    1  UNL1        0.0088
      7 C         140.6157  144.3081  162.1487 C.ar    1  UNL1        0.0507
      8 C         140.1993  144.3563  163.5889 C.2     1  UNL1        0.2494
      9 O         139.3297  145.4026  164.2207 O.2     1  UNL1       -0.2699
     10 N         140.8050  143.1746  164.2864 N.am    1  UNL1       -0.2620
     11 C         141.5959  142.3960  163.2772 C.3     1  UNL1        0.1753
     12 C         142.3682  141.1378  163.5426 C.2     1  UNL1        0.2448
     13 O         142.1798  139.9414  162.6578 O.2     1  UNL1       -0.2729
     14 N         143.3289  141.0760  164.6930 N.am    1  UNL1       -0.3059
     15 H         143.4526  141.8613  165.2738 H       1  UNL1        0.1494
     16 C         144.1012  139.8178  164.9584 C.3     1  UNL1        0.0569
     17 C         142.9622  139.2923  165.7810 C.3     1  UNL1        0.0196
     18 C         145.2401  140.3433  164.1357 C.3     1  UNL1        0.0196
     19 C         144.8734  138.5596  165.2238 C.3     1  UNL1        0.0196
     20 O         140.5931  145.8049  158.4732 O.3     1  UNL1       -0.3446
     21 S         141.3058  145.6062  157.1684 S.O2    1  UNL1        0.1337
     22 C         142.0186  145.4075  155.8636 C.3     1  UNL1        0.2230
     23 O         140.1225  144.8532  156.6368 O.2     1  UNL1       -0.1360
     24 O         142.4891  146.3592  157.7001 O.2     1  UNL1       -0.1360
     25 C         140.6476  142.8316  165.7382 C.3     1  UNL1        0.1212
     26 C         139.8979  141.5962  166.1399 C.ar    1  UNL1       -0.0023
     27 C         138.9784  140.9257  165.1626 C.ar    1  UNL1       -0.0026
     28 C         138.2287  139.6902  165.5643 C.ar    1  UNL1       -0.0003
     29 C         138.3983  139.1252  166.9435 C.ar    1  UNL1       -0.0000
     30 C         139.3177  139.7956  167.9208 C.ar    1  UNL1       -0.0003
     31 C         140.0675  141.0311  167.5191 C.ar    1  UNL1       -0.0024
     32 C         140.9868  141.7015  168.4964 C.ar    1  UNL1       -0.0003
     33 C         140.5138  142.8932  169.2750 C.ar    1  UNL1       -0.0000
     34 C         141.4332  143.5636  170.2524 C.ar    1  UNL1       -0.0000
     35 C         142.8257  143.0424  170.4511 C.ar    1  UNL1       -0.0000
     36 C         143.2987  141.8507  169.6725 C.ar    1  UNL1       -0.0000
     37 C         142.3792  141.1803  168.6951 C.ar    1  UNL1       -0.0000
@<TRIPOS>BOND
     1     1     2    1
     2     2     3   ar
     3     3    20    1
     4    20    21    1
     5    21    22    1
     6    21    23    2
     7    21    24    2
     8     3     4   ar
     9     4     5   ar
    10     5     6   ar
    11     6     7   ar
    12     7     8    1
    13     8     9    2
    14     8    10   am
    15    10    25    1
    16    25    26    1
    17    26    27   ar
    18    27    28   ar
    19    28    29   ar
    20    29    30   ar
    21    30    31   ar
    22    31    32    1
    23    32    33   ar
    24    33    34   ar
    25    34    35   ar
    26    35    36   ar
    27    36    37   ar
    28    10    11    1
    29    11    12    1
    30    12    13    2
    31    12    14   am
    32    14    16    1
    33    16    17    1
    34    16    18    1
    35    16    19    1
    36     7     2   ar
    37    31    26   ar
    38    37    32   ar
    39    11     6    1
    40    14    15    1
@<TRIPOS>MOLECULE
*****
 37 40 0 0 0
SMALL
GASTEIGER

@<TRIPOS>ATOM
      1 C         143.9395  141.5121  159.5748 C.3     1  UNL1        0.0344
      2 C         142.9128  140.6244  160.2134 C.ar    1  UNL1        0.0191
      3 C         142.6086  139.2813  159.6190 C.ar    1  UNL1        0.1693
      4 C         141.5819  138.3936  160.2576 C.ar    1  UNL1        0.0393
      5 C         140.8593  138.8491  161.4906 C.ar    1  UNL1        0.0011
      6 C         141.1635  140.1922  162.0851 C.ar    1  UNL1        0.0088
      7 C         142.1902  141.0799  161.4464 C.ar    1  UNL1        0.0507
      8 C         142.2778  142.3418  162.2526 C.2     1  UNL1        0.2494
      9 O         143.1796  143.5069  161.9713 O.2     1  UNL1       -0.2699
     10 N         141.3052  142.2341  163.3894 N.am    1  UNL1       -0.2620
     11 C         140.6165  140.9056  163.2859 C.3     1  UNL1        0.1753
     12 C         139.5654  140.3822  164.2193 C.2     1  UNL1        0.2448
     13 O         138.2090  141.0214  164.2555 O.2     1  UNL1       -0.2729
     14 N         139.8708  139.2195  165.1166 N.am    1  UNL1       -0.3059
     15 H         140.7611  138.7999  165.0928 H       1  UNL1        0.1494
     16 C         138.8196  138.6961  166.0500 C.3     1  UNL1        0.0569
     17 C         139.1779  139.7570  167.0481 C.3     1  UNL1        0.0196
     18 C         138.4615  137.6353  165.0518 C.3     1  UNL1        0.0196
     19 C         137.7686  138.1728  166.9833 C.3     1  UNL1        0.0196
     20 O         143.3312  138.8257  158.3859 O.3     1  UNL1       -0.3446
     21 S         142.5644  138.2188  157.2485 S.O2    1  UNL1        0.1337
     22 C         141.7977  137.6117  156.1111 C.3     1  UNL1        0.2230
     23 O         141.9445  139.5526  156.9545 O.2     1  UNL1       -0.1360
     24 O         143.1844  136.8849  157.5424 O.2     1  UNL1       -0.1360
     25 C         141.0636  143.2725  164.4445 C.3     1  UNL1        0.1212
     26 C         141.1681  142.9061  165.8953 C.ar    1  UNL1       -0.0023
     27 C         140.0589  143.2617  166.8405 C.ar    1  UNL1       -0.0026
     28 C         140.1634  142.8953  168.2912 C.ar    1  UNL1       -0.0003
     29 C         141.3770  142.1733  168.7970 C.ar    1  UNL1       -0.0000
     30 C         142.4862  141.8177  167.8519 C.ar    1  UNL1       -0.0003
     31 C         142.3818  142.1841  166.4010 C.ar    1  UNL1       -0.0024
     32 C         143.4910  141.8285  165.4560 C.ar    1  UNL1       -0.0003
     33 C         143.6374  140.4176  164.9684 C.ar    1  UNL1       -0.0000
     34 C         144.7466  140.0620  164.0233 C.ar    1  UNL1       -0.0000
     35 C         145.7094  141.1173  163.5658 C.ar    1  UNL1       -0.0000
     36 C         145.5630  142.5283  164.0534 C.ar    1  UNL1       -0.0000
     37 C         144.4537  142.8839  164.9985 C.ar    1  UNL1       -0.0000
@<TRIPOS>BOND
     1     1     2    1
     2     2     3   ar
     3     3    20    1
     4    20    21    1
     5    21    22    1
     6    21    23    2
     7    21    24    2
     8     3     4   ar
     9     4     5   ar
    10     5     6   ar
    11     6     7   ar
    12     7     8    1
    13     8     9    2
    14     8    10   am
    15    10    25    1
    16    25    26    1
    17    26    27   ar
    18    27    28   ar
    19    28    29   ar
    20    29    30   ar
    21    30    31   ar
    22    31    32    1
    23    32    33   ar
    24    33    34   ar
    25    34    35   ar
    26    35    36   ar
    27    36    37   ar
    28    10    11    1
    29    11    12    1
    30    12    13    2
    31    12    14   am
    32    14    16    1
    33    16    17    1
    34    16    18    1
    35    16    19    1
    36     7     2   ar
    37    31    26   ar
    38    37    32   ar
    39    11     6    1
    40    14    15    1
@<TRIPOS>MOLECULE
*****
 37 40 0 0 0
SMALL
GASTEIGER

@<TRIPOS>ATOM
      1 C         142.9982  139.3945  168.2152 C.3     1  UNL1        0.0344
      2 C         141.7951  139.4866  167.3240 C.ar    1  UNL1        0.0191
      3 C         140.4591  139.8477  167.9025 C.ar    1  UNL1        0.1693
      4 C         139.2561  139.9398  167.0114 C.ar    1  UNL1        0.0393
      5 C         139.3890  139.6709  165.5417 C.ar    1  UNL1        0.0011
      6 C         140.7250  139.3098  164.9632 C.ar    1  UNL1        0.0088
      7 C         141.9280  139.2177  165.8544 C.ar    1  UNL1        0.0507
      8 C         143.1064  138.8433  165.0050 C.2     1  UNL1        0.2494
      9 O         144.5127  138.6433  165.4872 O.2     1  UNL1       -0.2699
     10 N         142.6316  138.7040  163.5890 N.am    1  UNL1       -0.2620
     11 C         141.1598  138.9924  163.5632 C.3     1  UNL1        0.1753
     12 C         140.2777  138.9676  162.3502 C.2     1  UNL1        0.2448
     13 O         140.1034  137.6952  161.5754 O.2     1  UNL1       -0.2729
     14 N         139.5699  140.2155  161.9120 N.am    1  UNL1       -0.3059
     15 H         139.6843  141.0507  162.4205 H       1  UNL1        0.1494
     16 C         138.6878  140.1907  160.6990 C.3     1  UNL1        0.0569
     17 C         137.5646  139.6406  161.5272 C.3     1  UNL1        0.0196
     18 C         139.8110  140.7408  159.8709 C.3     1  UNL1        0.0196
     19 C         137.8057  140.1660  159.4862 C.3     1  UNL1        0.0196
     20 O         140.3261  140.1166  169.3723 O.3     1  UNL1       -0.3446
     21 S         140.0392  141.5066  169.8574 S.O2    1  UNL1        0.1337
     22 C         139.7522  142.8967  170.3426 C.3     1  UNL1        0.2230
     23 O         138.6952  141.0575  170.3492 O.2     1  UNL1       -0.1360
     24 O         141.3831  141.9558  169.3656 O.2     1  UNL1       -0.1360
     25 C         143.4797  138.3403  162.4065 C.3     1  UNL1        0.1212
     26 C         143.3708  139.1281  161.1347 C.ar    1  UNL1       -0.0023
     27 C         143.0815  138.4270  159.8405 C.ar    1  UNL1       -0.0026
     28 C         142.9726  139.2148  158.5688 C.ar    1  UNL1       -0.0003
     29 C         143.1530  140.7037  158.5911 C.ar    1  UNL1       -0.0000
     30 C         143.4423  141.4049  159.8851 C.ar    1  UNL1       -0.0003
     31 C         143.5512  140.6171  161.1570 C.ar    1  UNL1       -0.0024
     32 C         143.8405  141.3182  162.4511 C.ar    1  UNL1       -0.0003
     33 C         142.7514  142.0711  163.1560 C.ar    1  UNL1       -0.0000
     34 C         143.0407  142.7723  164.4500 C.ar    1  UNL1       -0.0000
     35 C         144.4192  142.7205  165.0393 C.ar    1  UNL1       -0.0000
     36 C         145.5083  141.9676  164.3344 C.ar    1  UNL1       -0.0000
     37 C         145.2189  141.2664  163.0402 C.ar    1  UNL1       -0.0000
@<TRIPOS>BOND
     1     1     2    1
     2     2     3   ar
     3     3    20    1
     4    20    21    1
     5    21    22    1
     6    21    23    2
     7    21    24    2
     8     3     4   ar
     9     4     5   ar
    10     5     6   ar
    11     6     7   ar
    12     7     8    1
    13     8     9    2
    14     8    10   am
    15    10    25    1
    16    25    26    1
    17    26    27   ar
    18    27    28   ar
    19    28    29   ar
    20    29    30   ar
    21    30    31   ar
    22    31    32    1
    23    32    33   ar
    24    33    34   ar
    25    34    35   ar
    26    35    36   ar
    27    36    37   ar
    28    10    11    1
    29    11    12    1
    30    12    13    2
    31    12    14   am
    32    14    16    1
    33    16    17    1
    34    16    18    1
    35    16    19    1
    36     7     2   ar
    37    31    26   ar
    38    37    32   ar
    39    11     6    1
    40    14    15    1
@<TRIPOS>MOLECULE
*****
 37 40 0 0 0
SMALL
GASTEIGER

@<TRIPOS>ATOM
      1 C         143.8200  141.2571  157.9361 C.3     1  UNL1        0.0344
      2 C         143.1577  140.3612  158.9405 C.ar    1  UNL1        0.0191
      3 C         142.9750  138.9031  158.6396 C.ar    1  UNL1        0.1693
      4 C         142.3127  138.0072  159.6439 C.ar    1  UNL1        0.0393
      5 C         141.8331  138.5694  160.9492 C.ar    1  UNL1        0.0011
      6 C         142.0157  140.0275  161.2502 C.ar    1  UNL1        0.0088
      7 C         142.6780  140.9234  160.2458 C.ar    1  UNL1        0.0507
      8 C         142.7196  142.3096  160.8174 C.2     1  UNL1        0.2494
      9 O         143.2965  143.5221  160.1487 O.2     1  UNL1       -0.2699
     10 N         142.0830  142.2705  162.1751 N.am    1  UNL1       -0.2620
     11 C         141.6480  140.8601  162.4425 C.3     1  UNL1        0.1753
     12 C         140.9652  140.3685  163.6843 C.2     1  UNL1        0.2448
     13 O         141.6492  140.4881  165.0138 O.2     1  UNL1       -0.2729
     14 N         139.5981  139.7571  163.5965 N.am    1  UNL1       -0.3059
     15 H         139.1491  139.6786  162.7239 H       1  UNL1        0.1494
     16 C         138.9152  139.2655  164.8383 C.3     1  UNL1        0.0569
     17 C         139.5726  137.9277  164.6701 C.3     1  UNL1        0.0196
     18 C         138.2579  140.6033  165.0064 C.3     1  UNL1        0.0196
     19 C         138.2324  138.7739  166.0800 C.3     1  UNL1        0.0196
     20 O         143.4546  138.3408  157.3342 O.3     1  UNL1       -0.3446
     21 S         142.6131  137.3456  156.5918 S.O2    1  UNL1        0.1337
     22 C         141.7714  136.3503  155.8494 C.3     1  UNL1        0.2230
     23 O         143.6453  136.2863  156.8418 O.2     1  UNL1       -0.1360
     24 O         141.5809  138.4049  156.3419 O.2     1  UNL1       -0.1360
     25 C         141.9116  143.4369  163.1024 C.3     1  UNL1        0.1212
     26 C         140.5590  143.7520  163.6691 C.ar    1  UNL1       -0.0023
     27 C         140.3501  143.7543  165.1545 C.ar    1  UNL1       -0.0026
     28 C         138.9975  144.0694  165.7212 C.ar    1  UNL1       -0.0003
     29 C         137.8538  144.3823  164.8026 C.ar    1  UNL1       -0.0000
     30 C         138.0626  144.3800  163.3172 C.ar    1  UNL1       -0.0003
     31 C         139.4152  144.0649  162.7504 C.ar    1  UNL1       -0.0024
     32 C         139.6241  144.0627  161.2651 C.ar    1  UNL1       -0.0003
     33 C         140.2683  145.2408  160.5965 C.ar    1  UNL1       -0.0000
     34 C         140.4771  145.2386  159.1111 C.ar    1  UNL1       -0.0000
     35 C         140.0418  144.0581  158.2943 C.ar    1  UNL1       -0.0000
     36 C         139.3976  142.8800  158.9629 C.ar    1  UNL1       -0.0000
     37 C         139.1887  142.8823  160.4483 C.ar    1  UNL1       -0.0000
@<TRIPOS>BOND
     1     1     2    1
     2     2     3   ar
     3     3    20    1
     4    20    21    1
     5    21    22    1
     6    21    23    2
     7    21    24    2
     8     3     4   ar
     9     4     5   ar
    10     5     6   ar
    11     6     7   ar
    12     7     8    1
    13     8     9    2
    14     8    10   am
    15    10    25    1
    16    25    26    1
    17    26    27   ar
    18    27    28   ar
    19    28    29   ar
    20    29    30   ar
    21    30    31   ar
    22    31    32    1
    23    32    33   ar
    24    33    34   ar
    25    34    35   ar
    26    35    36   ar
    27    36    37   ar
    28    10    11    1
    29    11    12    1
    30    12    13    2
    31    12    14   am
    32    14    16    1
    33    16    17    1
    34    16    18    1
    35    16    19    1
    36     7     2   ar
    37    31    26   ar
    38    37    32   ar
    39    11     6    1
    40    14    15    1
@<TRIPOS>MOLECULE
*****
 37 40 0 0 0
SMALL
GASTEIGER

@<TRIPOS>ATOM
      1 C         142.8290  138.7014  167.7335 C.3     1  UNL1        0.0344
      2 C         142.6849  140.0258  167.0441 C.ar    1  UNL1        0.0191
      3 C         142.8707  141.2978  167.8170 C.ar    1  UNL1        0.1693
      4 C         142.7266  142.6222  167.1276 C.ar    1  UNL1        0.0393
      5 C         142.3968  142.6746  165.6653 C.ar    1  UNL1        0.0011
      6 C         142.2111  141.4025  164.8924 C.ar    1  UNL1        0.0088
      7 C         142.3552  140.0782  165.5818 C.ar    1  UNL1        0.0507
      8 C         142.1166  138.9992  164.5674 C.2     1  UNL1        0.2494
      9 O         142.1616  137.5221  164.8243 O.2     1  UNL1       -0.2699
     10 N         141.8251  139.6567  163.2511 N.am    1  UNL1       -0.2620
     11 C         141.8835  141.1421  163.4520 C.3     1  UNL1        0.1753
     12 C         141.6545  142.1841  162.3975 C.2     1  UNL1        0.2448
     13 O         142.5281  142.2225  161.1788 O.2     1  UNL1       -0.2729
     14 N         140.5519  143.1877  162.5618 N.am    1  UNL1       -0.3059
     15 H         139.9785  143.1626  163.3617 H       1  UNL1        0.1494
     16 C         140.3229  144.2297  161.5074 C.3     1  UNL1        0.0569
     17 C         141.2411  145.1670  162.2344 C.3     1  UNL1        0.0196
     18 C         139.4048  143.2924  160.7805 C.3     1  UNL1        0.0196
     19 C         140.0940  145.2717  160.4530 C.3     1  UNL1        0.0196
     20 O         143.2005  141.2455  169.2795 O.3     1  UNL1       -0.3446
     21 S         142.1956  141.7092  170.2920 S.O2    1  UNL1        0.1337
     22 C         141.1907  142.1729  171.3045 C.3     1  UNL1        0.2230
     23 O         141.4838  140.3929  170.1883 O.2     1  UNL1       -0.1360
     24 O         142.9075  143.0254  170.3956 O.2     1  UNL1       -0.1360
     25 C         141.5275  138.9526  161.9605 C.3     1  UNL1        0.1212
     26 C         140.3404  139.3611  161.1397 C.ar    1  UNL1       -0.0023
     27 C         140.5061  139.6629  159.6797 C.ar    1  UNL1       -0.0026
     28 C         139.3190  140.0714  158.8588 C.ar    1  UNL1       -0.0003
     29 C         137.9661  140.1782  159.4979 C.ar    1  UNL1       -0.0000
     30 C         137.8004  139.8764  160.9578 C.ar    1  UNL1       -0.0003
     31 C         138.9875  139.4679  161.7788 C.ar    1  UNL1       -0.0024
     32 C         138.8218  139.1661  163.2387 C.ar    1  UNL1       -0.0003
     33 C         138.8920  137.7486  163.7242 C.ar    1  UNL1       -0.0000
     34 C         138.7262  137.4468  165.1841 C.ar    1  UNL1       -0.0000
     35 C         138.4903  138.5626  166.1586 C.ar    1  UNL1       -0.0000
     36 C         138.4201  139.9801  165.6730 C.ar    1  UNL1       -0.0000
     37 C         138.5858  140.2818  164.2130 C.ar    1  UNL1       -0.0000
@<TRIPOS>BOND
     1     1     2    1
     2     2     3   ar
     3     3    20    1
     4    20    21    1
     5    21    22    1
     6    21    23    2
     7    21    24    2
     8     3     4   ar
     9     4     5   ar
    10     5     6   ar
    11     6     7   ar
    12     7     8    1
    13     8     9    2
    14     8    10   am
    15    10    25    1
    16    25    26    1
    17    26    27   ar
    18    27    28   ar
    19    28    29   ar
    20    29    30   ar
    21    30    31   ar
    22    31    32    1
    23    32    33   ar
    24    33    34   ar
    25    34    35   ar
    26    35    36   ar
    27    36    37   ar
    28    10    11    1
    29    11    12    1
    30    12    13    2
    31    12    14   am
    32    14    16    1
    33    16    17    1
    34    16    18    1
    35    16    19    1
    36     7     2   ar
    37    31    26   ar
    38    37    32   ar
    39    11     6    1
    40    14    15    1
@<TRIPOS>MOLECULE
*****
 37 40 0 0 0
SMALL
GASTEIGER

@<TRIPOS>ATOM
      1 C         144.2522  141.3953  158.4161 C.3     1  UNL1        0.0344
      2 C         143.2805  140.3886  158.9568 C.ar    1  UNL1        0.0191
      3 C         143.0569  139.0962  158.2291 C.ar    1  UNL1        0.1693
      4 C         142.0852  138.0894  158.7698 C.ar    1  UNL1        0.0393
      5 C         141.3371  138.3752  160.0380 C.ar    1  UNL1        0.0011
      6 C         141.5607  139.6676  160.7657 C.ar    1  UNL1        0.0088
      7 C         142.5324  140.6744  160.2250 C.ar    1  UNL1        0.0507
      8 C         142.5446  141.8520  161.1540 C.2     1  UNL1        0.2494
      9 O         143.3752  143.0910  160.9959 O.2     1  UNL1       -0.2699
     10 N         141.5805  141.5732  162.2687 N.am    1  UNL1       -0.2620
     11 C         140.9724  140.2232  162.0288 C.3     1  UNL1        0.1753
     12 C         139.9546  139.5473  162.8990 C.2     1  UNL1        0.2448
     13 O         138.6776  139.0360  162.3012 O.2     1  UNL1       -0.2729
     14 N         140.2141  139.3827  164.3673 N.am    1  UNL1       -0.3059
     15 H         141.0523  139.7182  164.7598 H       1  UNL1        0.1494
     16 C         139.1963  138.7068  165.2376 C.3     1  UNL1        0.0569
     17 C         138.5969  140.0405  165.5723 C.3     1  UNL1        0.0196
     18 C         139.7957  137.3731  164.9028 C.3     1  UNL1        0.0196
     19 C         138.1786  138.0310  166.1078 C.3     1  UNL1        0.0196
     20 O         143.8051  138.8104  156.9607 O.3     1  UNL1       -0.3446
     21 S         143.1388  138.0513  155.8518 S.O2    1  UNL1        0.1337
     22 C         142.4725  137.2921  154.7428 C.3     1  UNL1        0.2230
     23 O         142.2519  139.2296  155.5781 O.2     1  UNL1       -0.1360
     24 O         144.0257  136.8729  156.1255 O.2     1  UNL1       -0.1360
     25 C         141.2777  142.4844  163.4211 C.3     1  UNL1        0.1212
     26 C         142.3521  143.3695  163.9799 C.ar    1  UNL1       -0.0023
     27 C         142.4087  144.8172  163.5913 C.ar    1  UNL1       -0.0026
     28 C         143.4831  145.7022  164.1501 C.ar    1  UNL1       -0.0003
     29 C         144.5009  145.1396  165.0975 C.ar    1  UNL1       -0.0000
     30 C         144.4444  143.6920  165.4860 C.ar    1  UNL1       -0.0003
     31 C         143.3699  142.8068  164.9273 C.ar    1  UNL1       -0.0024
     32 C         143.3133  141.3592  165.3158 C.ar    1  UNL1       -0.0003
     33 C         143.9426  140.3210  164.4349 C.ar    1  UNL1       -0.0000
     34 C         143.8861  138.8734  164.8234 C.ar    1  UNL1       -0.0000
     35 C         143.2002  138.4638  166.0931 C.ar    1  UNL1       -0.0000
     36 C         142.5708  139.5020  166.9740 C.ar    1  UNL1       -0.0000
     37 C         142.6274  140.9497  166.5854 C.ar    1  UNL1       -0.0000
@<TRIPOS>BOND
     1     1     2    1
     2     2     3   ar
     3     3    20    1
     4    20    21    1
     5    21    22    1
     6    21    23    2
     7    21    24    2
     8     3     4   ar
     9     4     5   ar
    10     5     6   ar
    11     6     7   ar
    12     7     8    1
    13     8     9    2
    14     8    10   am
    15    10    25    1
    16    25    26    1
    17    26    27   ar
    18    27    28   ar
    19    28    29   ar
    20    29    30   ar
    21    30    31   ar
    22    31    32    1
    23    32    33   ar
    24    33    34   ar
    25    34    35   ar
    26    35    36   ar
    27    36    37   ar
    28    10    11    1
    29    11    12    1
    30    12    13    2
    31    12    14   am
    32    14    16    1
    33    16    17    1
    34    16    18    1
    35    16    19    1
    36     7     2   ar
    37    31    26   ar
    38    37    32   ar
    39    11     6    1
    40    14    15    1
@<TRIPOS>MOLECULE
*****
 37 40 0 0 0
SMALL
GASTEIGER

@<TRIPOS>ATOM
      1 C         139.7358  138.0919  157.0587 C.3     1  UNL1        0.0344
      2 C         140.9259  138.4918  157.8795 C.ar    1  UNL1        0.0191
      3 C         142.3113  138.2755  157.3469 C.ar    1  UNL1        0.1693
      4 C         143.5014  138.6754  158.1677 C.ar    1  UNL1        0.0393
      5 C         143.3060  139.2916  159.5213 C.ar    1  UNL1        0.0011
      6 C         141.9206  139.5078  160.0539 C.ar    1  UNL1        0.0088
      7 C         140.7306  139.1079  159.2331 C.ar    1  UNL1        0.0507
      8 C         139.4948  139.4415  160.0152 C.2     1  UNL1        0.2494
      9 O         138.0809  139.2097  159.5710 O.2     1  UNL1       -0.2699
     10 N         139.9211  140.0475  161.3194 N.am    1  UNL1       -0.2620
     11 C         141.4203  140.0885  161.3433 C.3     1  UNL1        0.1753
     12 C         142.2701  140.6173  162.4606 C.2     1  UNL1        0.2448
     13 O         142.2459  139.9482  163.8028 O.2     1  UNL1       -0.2729
     14 N         143.1443  141.8154  162.2355 N.am    1  UNL1       -0.3059
     15 H         143.1603  142.2547  161.3546 H       1  UNL1        0.1494
     16 C         143.9941  142.3443  163.3527 C.3     1  UNL1        0.0569
     17 C         145.1168  141.4469  162.9234 C.3     1  UNL1        0.0196
     18 C         142.8713  143.2416  163.7820 C.3     1  UNL1        0.0196
     19 C         144.8439  142.8731  164.4699 C.3     1  UNL1        0.0196
     20 O         142.5067  137.6593  155.9932 O.3     1  UNL1       -0.3446
     21 S         143.2227  136.3477  155.8625 S.O2    1  UNL1        0.1337
     22 C         143.9387  135.0361  155.7318 C.3     1  UNL1        0.2230
     23 O         141.9469  135.6208  156.1691 O.2     1  UNL1       -0.1360
     24 O         144.4984  137.0746  155.5560 O.2     1  UNL1       -0.1360
     25 C         139.0084  140.5281  162.4084 C.3     1  UNL1        0.1212
     26 C         138.8012  139.6924  163.6366 C.ar    1  UNL1       -0.0023
     27 C         138.7632  138.1967  163.5284 C.ar    1  UNL1       -0.0026
     28 C         138.5559  137.3609  164.7566 C.ar    1  UNL1       -0.0003
     29 C         138.3867  138.0208  166.0931 C.ar    1  UNL1       -0.0000
     30 C         138.4247  139.5163  166.2013 C.ar    1  UNL1       -0.0003
     31 C         138.6319  140.3522  164.9730 C.ar    1  UNL1       -0.0024
     32 C         138.6699  141.8478  165.0813 C.ar    1  UNL1       -0.0003
     33 C         139.7857  142.5177  165.8271 C.ar    1  UNL1       -0.0000
     34 C         139.8237  144.0132  165.9353 C.ar    1  UNL1       -0.0000
     35 C         138.7459  144.8390  165.2977 C.ar    1  UNL1       -0.0000
     36 C         137.6301  144.1691  164.5519 C.ar    1  UNL1       -0.0000
     37 C         137.5921  142.6734  164.4437 C.ar    1  UNL1       -0.0000
@<TRIPOS>BOND
     1     1     2    1
     2     2     3   ar
     3     3    20    1
     4    20    21    1
     5    21    22    1
     6    21    23    2
     7    21    24    2
     8     3     4   ar
     9     4     5   ar
    10     5     6   ar
    11     6     7   ar
    12     7     8    1
    13     8     9    2
    14     8    10   am
    15    10    25    1
    16    25    26    1
    17    26    27   ar
    18    27    28   ar
    19    28    29   ar
    20    29    30   ar
    21    30    31   ar
    22    31    32    1
    23    32    33   ar
    24    33    34   ar
    25    34    35   ar
    26    35    36   ar
    27    36    37   ar
    28    10    11    1
    29    11    12    1
    30    12    13    2
    31    12    14   am
    32    14    16    1
    33    16    17    1
    34    16    18    1
    35    16    19    1
    36     7     2   ar
    37    31    26   ar
    38    37    32   ar
    39    11     6    1
    40    14    15    1
@<TRIPOS>MOLECULE
*****
 37 40 0 0 0
SMALL
GASTEIGER

@<TRIPOS>ATOM
      1 C         139.8025  141.3569  170.0757 C.3     1  UNL1        0.0344
      2 C         139.1979  140.4463  169.0485 C.ar    1  UNL1        0.0191
      3 C         137.9783  139.6407  169.3853 C.ar    1  UNL1        0.1693
      4 C         137.3737  138.7301  168.3580 C.ar    1  UNL1        0.0393
      5 C         137.9887  138.6251  166.9940 C.ar    1  UNL1        0.0011
      6 C         139.2083  139.4307  166.6572 C.ar    1  UNL1        0.0088
      7 C         139.8129  140.3413  167.6844 C.ar    1  UNL1        0.0507
      8 C         141.0072  141.0074  167.0679 C.2     1  UNL1        0.2494
      9 O         141.9095  141.9984  167.7414 O.2     1  UNL1       -0.2699
     10 N         141.1407  140.5084  165.6596 N.am    1  UNL1       -0.2620
     11 C         140.0289  139.5340  165.4058 C.3     1  UNL1        0.1753
     12 C         139.7812  138.7929  164.1254 C.2     1  UNL1        0.2448
     13 O         139.7530  137.2933  164.1201 O.2     1  UNL1       -0.2729
     14 N         139.5617  139.5516  162.8501 N.am    1  UNL1       -0.3059
     15 H         139.5802  140.5359  162.8535 H       1  UNL1        0.1494
     16 C         139.3140  138.8106  161.5696 C.3     1  UNL1        0.0569
     17 C         137.8394  138.8298  161.8439 C.3     1  UNL1        0.0196
     18 C         140.7886  138.7914  161.2955 C.3     1  UNL1        0.0196
     19 C         139.0663  138.0695  160.2893 C.3     1  UNL1        0.0196
     20 O         137.3632  139.7457  170.7494 O.3     1  UNL1       -0.3446
     21 S         136.9739  138.5033  171.4942 S.O2    1  UNL1        0.1337
     22 C         136.5845  137.2608  172.2391 C.3     1  UNL1        0.2230
     23 O         138.4017  138.3044  171.9086 O.2     1  UNL1       -0.1360
     24 O         135.5461  138.7023  171.0798 O.2     1  UNL1       -0.1360
     25 C         142.1999  140.9129  164.6776 C.3     1  UNL1        0.1212
     26 C         142.7310  142.3157  164.6826 C.ar    1  UNL1       -0.0023
     27 C         144.0979  142.5983  165.2320 C.ar    1  UNL1       -0.0026
     28 C         144.6289  144.0011  165.2370 C.ar    1  UNL1       -0.0003
     29 C         143.7931  145.1214  164.6927 C.ar    1  UNL1       -0.0000
     30 C         142.4263  144.8389  164.1433 C.ar    1  UNL1       -0.0003
     31 C         141.8952  143.4360  164.1382 C.ar    1  UNL1       -0.0024
     32 C         140.5283  143.1535  163.5889 C.ar    1  UNL1       -0.0003
     33 C         139.3468  143.0947  164.5111 C.ar    1  UNL1       -0.0000
     34 C         137.9799  142.8122  163.9617 C.ar    1  UNL1       -0.0000
     35 C         137.7946  142.5885  162.4900 C.ar    1  UNL1       -0.0000
     36 C         138.9761  142.6474  161.5678 C.ar    1  UNL1       -0.0000
     37 C         140.3430  142.9299  162.1173 C.ar    1  UNL1       -0.0000
@<TRIPOS>BOND
     1     1     2    1
     2     2     3   ar
     3     3    20    1
     4    20    21    1
     5    21    22    1
     6    21    23    2
     7    21    24    2
     8     3     4   ar
     9     4     5   ar
    10     5     6   ar
    11     6     7   ar
    12     7     8    1
    13     8     9    2
    14     8    10   am
    15    10    25    1
    16    25    26    1
    17    26    27   ar
    18    27    28   ar
    19    28    29   ar
    20    29    30   ar
    21    30    31   ar
    22    31    32    1
    23    32    33   ar
    24    33    34   ar
    25    34    35   ar
    26    35    36   ar
    27    36    37   ar
    28    10    11    1
    29    11    12    1
    30    12    13    2
    31    12    14   am
    32    14    16    1
    33    16    17    1
    34    16    18    1
    35    16    19    1
    36     7     2   ar
    37    31    26   ar
    38    37    32   ar
    39    11     6    1
    40    14    15    1
