@<TRIPOS>MOLECULE
*****
 35 39 0 0 0
SMALL
GASTEIGER

@<TRIPOS>ATOM
      1 N         138.1533  141.3690  164.0250 N.3     1  UNL1       -0.2724
      2 C         137.7192  140.9234  162.6600 C.3     1  UNL1        0.0721
      3 C         138.0408  139.4646  162.5245 C.3     1  UNL1        0.0187
      4 C         138.6737  139.0085  163.8057 C.3     1  UNL1        0.0178
      5 C         138.7432  140.1855  164.7330 C.3     1  UNL1        0.0721
      6 C         138.0207  142.7547  164.5837 C.3     1  UNL1        0.0768
      7 C         139.2288  143.6365  164.6968 C.3     1  UNL1        0.0439
      8 C         140.3930  143.2092  165.5407 C.ar    1  UNL1       -0.0193
      9 C         141.7658  143.1320  164.9411 C.ar    1  UNL1       -0.0041
     10 C         142.9298  142.7046  165.7851 C.ar    1  UNL1        0.0012
     11 C         142.7211  142.3545  167.2287 C.ar    1  UNL1        0.0175
     12 C         141.3484  142.4317  167.8283 C.ar    1  UNL1        0.0652
     13 C         140.1843  142.8591  166.9843 C.ar    1  UNL1        0.0133
     14 N         141.1397  142.0816  169.2719 N.ar    1  UNL1       -0.2864
     15 C         141.5987  140.8246  169.9495 C.ar    1  UNL1        0.1022
     16 C         141.1781  140.8931  171.3877 C.ar    1  UNL1        0.1196
     17 N         140.4590  142.1925  171.5989 N.ar    1  UNL1       -0.2220
     18 C         140.4353  142.9270  170.2911 C.ar    1  UNL1        0.1828
     19 C         139.2728  144.9457  163.9659 C.3     1  UNL1        0.0474
     20 O         139.9327  143.7405  161.7608 O.co2   1  UNL1       -0.5492
     21 C         139.4513  144.9677  162.4767 C.2     1  UNL1        0.0507
     22 O         139.1483  146.2167  161.7034 O.co2   1  UNL1       -0.5492
     23 C         139.1529  137.6194  164.1067 C.3     1  UNL1        0.0077
     24 C         140.4974  137.1676  163.6185 C.3     1  UNL1        0.0459
     25 C         141.6904  138.0642  163.7699 C.ar    1  UNL1        0.0603
     26 C         142.5020  138.0261  165.0308 C.ar    1  UNL1        0.0145
     27 C         143.6951  138.9226  165.1822 C.ar    1  UNL1       -0.0003
     28 C         144.0765  139.8573  164.0727 C.ar    1  UNL1        0.0092
     29 C         143.2649  139.8954  162.8118 C.ar    1  UNL1        0.1240
     30 N         142.0718  138.9989  162.6605 N.ar    1  UNL1       -0.2356
     31 N         143.6462  140.8301  161.7024 N.pl3   1  UNL1       -0.3184
     32 C         144.8392  141.7266  161.8538 C.3     1  UNL1        0.0885
     33 C         145.6509  141.6884  163.1147 C.3     1  UNL1        0.0260
     34 C         145.2695  140.7538  164.2241 C.3     1  UNL1        0.0309
     35 H         143.1135  140.8551  160.8748 H       1  UNL1        0.1482
@<TRIPOS>UNITY_ATOM_ATTR
20 1
charge -1
@<TRIPOS>BOND
     1    20    21   ar
     2    21    22   ar
     3    21    19    1
     4    19     7    1
     5     7     6    1
     6     6     1    1
     7     1     2    1
     8     2     3    1
     9     3     4    1
    10     4    23    1
    11    23    24    1
    12    24    25    1
    13    25    26   ar
    14    26    27   ar
    15    27    28   ar
    16    28    29   ar
    17    29    30   ar
    18    29    31    1
    19    31    32    1
    20    32    33    1
    21    33    34    1
    22     4     5    1
    23     7     8    1
    24     8     9   ar
    25     9    10   ar
    26    10    11   ar
    27    11    12   ar
    28    12    14    1
    29    14    15   ar
    30    15    16   ar
    31    16    17   ar
    32    17    18   ar
    33    12    13   ar
    34     5     1    1
    35    13     8   ar
    36    30    25   ar
    37    18    14   ar
    38    34    28    1
    39    31    35    1
@<TRIPOS>MOLECULE
*****
 35 39 0 0 0
SMALL
GASTEIGER

@<TRIPOS>ATOM
      1 N         141.2837  144.6410  163.4843 N.3     1  UNL1       -0.2724
      2 C         142.4523  145.4450  163.9720 C.3     1  UNL1        0.0721
      3 C         143.6735  144.9826  163.2339 C.3     1  UNL1        0.0187
      4 C         143.2596  143.8928  162.2900 C.3     1  UNL1        0.0178
      5 C         141.7826  143.6817  162.4447 C.3     1  UNL1        0.0721
      6 C         139.8652  144.7732  163.9537 C.3     1  UNL1        0.0768
      7 C         139.0359  143.5458  164.1900 C.3     1  UNL1        0.0439
      8 C         139.4540  142.5465  165.2278 C.ar    1  UNL1       -0.0193
      9 C         139.0179  141.1162  165.1104 C.ar    1  UNL1       -0.0041
     10 C         139.4360  140.1170  166.1481 C.ar    1  UNL1        0.0012
     11 C         140.2903  140.5482  167.3032 C.ar    1  UNL1        0.0175
     12 C         140.7264  141.9786  167.4207 C.ar    1  UNL1        0.0652
     13 C         140.3083  142.9777  166.3829 C.ar    1  UNL1        0.0133
     14 N         141.5806  142.4098  168.5758 N.ar    1  UNL1       -0.2864
     15 C         143.0314  142.0822  168.7701 C.ar    1  UNL1        0.1022
     16 C         143.4815  142.7142  170.0538 C.ar    1  UNL1        0.1196
     17 N         142.3088  143.4325  170.6529 N.ar    1  UNL1       -0.2220
     18 C         141.1340  143.2443  169.7393 C.ar    1  UNL1        0.1828
     19 C         137.7886  143.3176  163.3887 C.3     1  UNL1        0.0474
     20 O         137.3646  141.2990  161.8088 O.co2   1  UNL1       -0.5492
     21 C         137.8753  142.6924  162.0279 C.2     1  UNL1        0.0507
     22 O         138.4726  143.4604  160.8863 O.co2   1  UNL1       -0.5492
     23 C         144.1639  143.1453  161.3554 C.3     1  UNL1        0.0077
     24 C         144.9276  141.9511  161.8458 C.3     1  UNL1        0.0459
     25 C         144.2343  140.9011  162.6626 C.ar    1  UNL1        0.0603
     26 C         144.7599  140.5384  164.0199 C.ar    1  UNL1        0.0145
     27 C         144.0667  139.4886  164.8367 C.ar    1  UNL1       -0.0003
     28 C         142.8478  138.8013  164.2962 C.ar    1  UNL1        0.0092
     29 C         142.3222  139.1639  162.9389 C.ar    1  UNL1        0.1240
     30 N         143.0155  140.2139  162.1221 N.ar    1  UNL1       -0.2356
     31 N         141.1034  138.4767  162.3983 N.pl3   1  UNL1       -0.3184
     32 C         140.4102  137.4268  163.2151 C.3     1  UNL1        0.0885
     33 C         140.9358  137.0642  164.5724 C.3     1  UNL1        0.0260
     34 C         142.1546  137.7514  165.1129 C.3     1  UNL1        0.0309
     35 H         140.7585  138.7147  161.5075 H       1  UNL1        0.1482
@<TRIPOS>UNITY_ATOM_ATTR
20 1
charge -1
@<TRIPOS>BOND
     1    20    21   ar
     2    21    22   ar
     3    21    19    1
     4    19     7    1
     5     7     6    1
     6     6     1    1
     7     1     2    1
     8     2     3    1
     9     3     4    1
    10     4    23    1
    11    23    24    1
    12    24    25    1
    13    25    26   ar
    14    26    27   ar
    15    27    28   ar
    16    28    29   ar
    17    29    30   ar
    18    29    31    1
    19    31    32    1
    20    32    33    1
    21    33    34    1
    22     4     5    1
    23     7     8    1
    24     8     9   ar
    25     9    10   ar
    26    10    11   ar
    27    11    12   ar
    28    12    14    1
    29    14    15   ar
    30    15    16   ar
    31    16    17   ar
    32    17    18   ar
    33    12    13   ar
    34     5     1    1
    35    13     8   ar
    36    30    25   ar
    37    18    14   ar
    38    34    28    1
    39    31    35    1
@<TRIPOS>MOLECULE
*****
 35 39 0 0 0
SMALL
GASTEIGER

@<TRIPOS>ATOM
      1 N         142.7540  140.7656  167.0814 N.3     1  UNL1       -0.2724
      2 C         143.1254  142.1198  166.5540 C.3     1  UNL1        0.0721
      3 C         143.9261  141.9255  165.3006 C.3     1  UNL1        0.0187
      4 C         144.0495  140.4512  165.0533 C.3     1  UNL1        0.0178
      5 C         143.3251  139.7344  166.1539 C.3     1  UNL1        0.0721
      6 C         141.9522  140.4909  168.3190 C.3     1  UNL1        0.0768
      7 C         140.4780  140.7678  168.3345 C.3     1  UNL1        0.0439
      8 C         139.6957  140.7374  167.0549 C.ar    1  UNL1       -0.0193
      9 C         138.9570  139.4940  166.6568 C.ar    1  UNL1       -0.0041
     10 C         138.1748  139.4637  165.3773 C.ar    1  UNL1        0.0012
     11 C         138.1312  140.6766  164.4959 C.ar    1  UNL1        0.0175
     12 C         138.8699  141.9200  164.8940 C.ar    1  UNL1        0.0652
     13 C         139.6522  141.9503  166.1735 C.ar    1  UNL1        0.0133
     14 N         138.8263  143.1329  164.0126 N.ar    1  UNL1       -0.2864
     15 C         139.9002  144.1730  163.8904 C.ar    1  UNL1        0.1022
     16 C         139.4388  145.2016  162.9009 C.ar    1  UNL1        0.1196
     17 N         138.0798  144.7972  162.4115 N.ar    1  UNL1       -0.2220
     18 C         137.7013  143.5186  163.0986 C.ar    1  UNL1        0.1828
     19 C         139.7862  141.0751  169.6294 C.3     1  UNL1        0.0474
     20 O         140.4807  142.2942  171.8161 O.co2   1  UNL1       -0.5492
     21 C         140.1014  142.3434  170.3656 C.2     1  UNL1        0.0507
     22 O         140.0375  143.6609  169.6514 O.co2   1  UNL1       -0.5492
     23 C         144.7707  139.8070  163.9067 C.3     1  UNL1        0.0077
     24 C         144.1339  139.7637  162.5493 C.3     1  UNL1        0.0459
     25 C         142.7087  139.3191  162.4033 C.ar    1  UNL1        0.0603
     26 C         142.2875  137.9720  162.9112 C.ar    1  UNL1        0.0145
     27 C         140.8624  137.5273  162.7653 C.ar    1  UNL1       -0.0003
     28 C         139.8584  138.4298  162.1114 C.ar    1  UNL1        0.0092
     29 C         140.2795  139.7769  161.6035 C.ar    1  UNL1        0.1240
     30 N         141.7047  140.2215  161.7495 N.ar    1  UNL1       -0.2356
     31 N         139.2756  140.6794  160.9496 N.pl3   1  UNL1       -0.3184
     32 C         137.8505  140.2347  160.8037 C.3     1  UNL1        0.0885
     33 C         137.4293  138.8876  161.3116 C.3     1  UNL1        0.0260
     34 C         138.4333  137.9852  161.9654 C.3     1  UNL1        0.0309
     35 H         139.5520  141.5635  160.6163 H       1  UNL1        0.1482
@<TRIPOS>UNITY_ATOM_ATTR
20 1
charge -1
@<TRIPOS>BOND
     1    20    21   ar
     2    21    22   ar
     3    21    19    1
     4    19     7    1
     5     7     6    1
     6     6     1    1
     7     1     2    1
     8     2     3    1
     9     3     4    1
    10     4    23    1
    11    23    24    1
    12    24    25    1
    13    25    26   ar
    14    26    27   ar
    15    27    28   ar
    16    28    29   ar
    17    29    30   ar
    18    29    31    1
    19    31    32    1
    20    32    33    1
    21    33    34    1
    22     4     5    1
    23     7     8    1
    24     8     9   ar
    25     9    10   ar
    26    10    11   ar
    27    11    12   ar
    28    12    14    1
    29    14    15   ar
    30    15    16   ar
    31    16    17   ar
    32    17    18   ar
    33    12    13   ar
    34     5     1    1
    35    13     8   ar
    36    30    25   ar
    37    18    14   ar
    38    34    28    1
    39    31    35    1
@<TRIPOS>MOLECULE
*****
 35 39 0 0 0
SMALL
GASTEIGER

@<TRIPOS>ATOM
      1 N         138.1607  140.2603  164.1219 N.3     1  UNL1       -0.2724
      2 C         137.7252  140.5977  162.7267 C.3     1  UNL1        0.0721
      3 C         137.5797  142.0877  162.6341 C.3     1  UNL1        0.0187
      4 C         137.9253  142.6713  163.9720 C.3     1  UNL1        0.0178
      5 C         138.2844  141.5418  164.8915 C.3     1  UNL1        0.0721
      6 C         138.4260  138.8832  164.6540 C.3     1  UNL1        0.0768
      7 C         139.8161  138.3206  164.6194 C.3     1  UNL1        0.0439
      8 C         140.8223  138.7440  165.6483 C.ar    1  UNL1       -0.0193
      9 C         142.2733  138.4144  165.4585 C.ar    1  UNL1       -0.0041
     10 C         143.2794  138.8377  166.4873 C.ar    1  UNL1        0.0012
     11 C         142.8345  139.5908  167.7059 C.ar    1  UNL1        0.0175
     12 C         141.3836  139.9205  167.8958 C.ar    1  UNL1        0.0652
     13 C         140.3775  139.4971  166.8669 C.ar    1  UNL1        0.0133
     14 N         140.9388  140.6735  169.1144 N.ar    1  UNL1       -0.2864
     15 C         140.2240  141.9921  169.1239 C.ar    1  UNL1        0.1022
     16 C         139.9740  142.3737  170.5528 C.ar    1  UNL1        0.1196
     17 N         140.5345  141.2909  171.4265 N.ar    1  UNL1       -0.2220
     18 C         141.1307  140.2400  170.5374 C.ar    1  UNL1        0.1828
     19 C         140.2001  137.3348  163.5561 C.3     1  UNL1        0.0474
     20 O         141.9505  138.1454  161.8157 O.co2   1  UNL1       -0.5492
     21 C         140.5321  137.8138  162.1739 C.2     1  UNL1        0.0507
     22 O         139.4459  137.9612  161.1501 O.co2   1  UNL1       -0.5492
     23 C         137.9139  144.1283  164.3279 C.3     1  UNL1        0.0077
     24 C         139.1975  144.8289  164.6618 C.3     1  UNL1        0.0459
     25 C         140.5018  144.0958  164.5551 C.ar    1  UNL1        0.0603
     26 C         140.9989  143.2776  165.7099 C.ar    1  UNL1        0.0145
     27 C         142.3031  142.5445  165.6033 C.ar    1  UNL1       -0.0003
     28 C         143.1104  142.6295  164.3418 C.ar    1  UNL1        0.0092
     29 C         142.6133  143.4477  163.1871 C.ar    1  UNL1        0.1240
     30 N         141.3090  144.1809  163.2937 N.ar    1  UNL1       -0.2356
     31 N         143.4205  143.5328  161.9257 N.pl3   1  UNL1       -0.3184
     32 C         144.7248  142.7997  161.8190 C.3     1  UNL1        0.0885
     33 C         145.2218  141.9815  162.9738 C.3     1  UNL1        0.0260
     34 C         144.4146  141.8964  164.2352 C.3     1  UNL1        0.0309
     35 H         143.0943  144.0698  161.1678 H       1  UNL1        0.1482
@<TRIPOS>UNITY_ATOM_ATTR
20 1
charge -1
@<TRIPOS>BOND
     1    20    21   ar
     2    21    22   ar
     3    21    19    1
     4    19     7    1
     5     7     6    1
     6     6     1    1
     7     1     2    1
     8     2     3    1
     9     3     4    1
    10     4    23    1
    11    23    24    1
    12    24    25    1
    13    25    26   ar
    14    26    27   ar
    15    27    28   ar
    16    28    29   ar
    17    29    30   ar
    18    29    31    1
    19    31    32    1
    20    32    33    1
    21    33    34    1
    22     4     5    1
    23     7     8    1
    24     8     9   ar
    25     9    10   ar
    26    10    11   ar
    27    11    12   ar
    28    12    14    1
    29    14    15   ar
    30    15    16   ar
    31    16    17   ar
    32    17    18   ar
    33    12    13   ar
    34     5     1    1
    35    13     8   ar
    36    30    25   ar
    37    18    14   ar
    38    34    28    1
    39    31    35    1
@<TRIPOS>MOLECULE
*****
 35 39 0 0 0
SMALL
GASTEIGER

@<TRIPOS>ATOM
      1 N         137.9935  140.5128  163.1253 N.3     1  UNL1       -0.2724
      2 C         137.9637  141.3268  161.8657 C.3     1  UNL1        0.0721
      3 C         137.8197  142.7697  162.2495 C.3     1  UNL1        0.0187
      4 C         137.7605  142.8475  163.7463 C.3     1  UNL1        0.0178
      5 C         137.8678  141.4527  164.2875 C.3     1  UNL1        0.0721
      6 C         138.1256  139.0210  163.2081 C.3     1  UNL1        0.0768
      7 C         139.1275  138.4074  164.1407 C.3     1  UNL1        0.0439
      8 C         140.5949  138.5476  163.8629 C.ar    1  UNL1       -0.0193
      9 C         141.5859  138.4151  164.9811 C.ar    1  UNL1       -0.0041
     10 C         143.0533  138.5553  164.7032 C.ar    1  UNL1        0.0012
     11 C         143.5296  138.8281  163.3073 C.ar    1  UNL1        0.0175
     12 C         142.5386  138.9607  162.1891 C.ar    1  UNL1        0.0652
     13 C         141.0712  138.8205  162.4670 C.ar    1  UNL1        0.0133
     14 N         143.0149  139.2335  160.7932 N.ar    1  UNL1       -0.2864
     15 C         143.6581  140.5006  160.3129 C.ar    1  UNL1        0.1022
     16 C         143.9724  140.3374  158.8553 C.ar    1  UNL1        0.1196
     17 N         143.5234  138.9693  158.4347 N.ar    1  UNL1       -0.2220
     18 C         142.9316  138.2871  159.6325 C.ar    1  UNL1        0.1828
     19 C         138.6620  137.6536  165.3511 C.3     1  UNL1        0.0474
     20 O         137.0157  137.8987  167.3461 O.co2   1  UNL1       -0.5492
     21 C         138.1946  138.3998  166.5656 C.2     1  UNL1        0.0507
     22 O         138.9062  139.6469  166.9994 O.co2   1  UNL1       -0.5492
     23 C         137.6187  144.1002  164.5590 C.3     1  UNL1        0.0077
     24 C         138.8135  144.6821  165.2546 C.3     1  UNL1        0.0459
     25 C         140.1529  144.0189  165.1263 C.ar    1  UNL1        0.0603
     26 C         140.5961  143.0190  166.1528 C.ar    1  UNL1        0.0145
     27 C         141.9354  142.3558  166.0245 C.ar    1  UNL1       -0.0003
     28 C         142.8315  142.6925  164.8696 C.ar    1  UNL1        0.0092
     29 C         142.3882  143.6924  163.8431 C.ar    1  UNL1        0.1240
     30 N         141.0489  144.3556  163.9714 N.ar    1  UNL1       -0.2356
     31 N         143.2843  144.0291  162.6882 N.pl3   1  UNL1       -0.3184
     32 C         144.6235  143.3659  162.5599 C.3     1  UNL1        0.0885
     33 C         145.0668  142.3660  163.5864 C.3     1  UNL1        0.0260
     34 C         144.1707  142.0293  164.7412 C.3     1  UNL1        0.0309
     35 H         142.9933  144.6854  162.0145 H       1  UNL1        0.1482
@<TRIPOS>UNITY_ATOM_ATTR
20 1
charge -1
@<TRIPOS>BOND
     1    20    21   ar
     2    21    22   ar
     3    21    19    1
     4    19     7    1
     5     7     6    1
     6     6     1    1
     7     1     2    1
     8     2     3    1
     9     3     4    1
    10     4    23    1
    11    23    24    1
    12    24    25    1
    13    25    26   ar
    14    26    27   ar
    15    27    28   ar
    16    28    29   ar
    17    29    30   ar
    18    29    31    1
    19    31    32    1
    20    32    33    1
    21    33    34    1
    22     4     5    1
    23     7     8    1
    24     8     9   ar
    25     9    10   ar
    26    10    11   ar
    27    11    12   ar
    28    12    14    1
    29    14    15   ar
    30    15    16   ar
    31    16    17   ar
    32    17    18   ar
    33    12    13   ar
    34     5     1    1
    35    13     8   ar
    36    30    25   ar
    37    18    14   ar
    38    34    28    1
    39    31    35    1
@<TRIPOS>MOLECULE
*****
 35 39 0 0 0
SMALL
GASTEIGER

@<TRIPOS>ATOM
      1 N         142.2591  144.3132  164.1167 N.3     1  UNL1       -0.2724
      2 C         142.1330  145.0538  162.8184 C.3     1  UNL1        0.0721
      3 C         140.6756  145.1422  162.4748 C.3     1  UNL1        0.0187
      4 C         139.9009  144.4562  163.5608 C.3     1  UNL1        0.0178
      5 C         140.8796  143.9438  164.5755 C.3     1  UNL1        0.0721
      6 C         143.5399  143.9973  164.8309 C.3     1  UNL1        0.0768
      7 C         144.0264  142.5804  164.9070 C.3     1  UNL1        0.0439
      8 C         143.3960  141.6219  165.8735 C.ar    1  UNL1       -0.0193
      9 C         143.4653  140.1454  165.6184 C.ar    1  UNL1       -0.0041
     10 C         142.8349  139.1870  166.5849 C.ar    1  UNL1        0.0012
     11 C         142.1353  139.7051  167.8065 C.ar    1  UNL1        0.0175
     12 C         142.0661  141.1816  168.0615 C.ar    1  UNL1        0.0652
     13 C         142.6964  142.1400  167.0951 C.ar    1  UNL1        0.0133
     14 N         141.3665  141.6997  169.2831 N.ar    1  UNL1       -0.2864
     15 C         140.3219  142.7758  169.3111 C.ar    1  UNL1        0.1022
     16 C         139.8984  142.9738  170.7364 C.ar    1  UNL1        0.1196
     17 N         140.6814  142.0201  171.5893 N.ar    1  UNL1       -0.2220
     18 C         141.5887  141.2326  170.6910 C.ar    1  UNL1        0.1828
     19 C         145.1432  142.1221  164.0167 C.3     1  UNL1        0.0474
     20 O         144.7282  140.4542  162.0683 O.co2   1  UNL1       -0.5492
     21 C         144.8844  141.8620  162.5623 C.2     1  UNL1        0.0507
     22 O         144.7818  143.0096  161.6019 O.co2   1  UNL1       -0.5492
     23 C         138.4095  144.3086  163.6213 C.3     1  UNL1        0.0077
     24 C         137.7650  143.0243  163.1910 C.3     1  UNL1        0.0459
     25 C         138.3693  141.7109  163.5911 C.ar    1  UNL1        0.0603
     26 C         138.0741  141.1301  164.9422 C.ar    1  UNL1        0.0145
     27 C         138.6783  139.8169  165.3423 C.ar    1  UNL1       -0.0003
     28 C         139.5778  139.0843  164.3913 C.ar    1  UNL1        0.0092
     29 C         139.8730  139.6651  163.0402 C.ar    1  UNL1        0.1240
     30 N         139.2687  140.9785  162.6401 N.ar    1  UNL1       -0.2356
     31 N         140.7724  138.9326  162.0891 N.pl3   1  UNL1       -0.3184
     32 C         141.3766  137.6193  162.4893 C.3     1  UNL1        0.0885
     33 C         141.0814  137.0385  163.8404 C.3     1  UNL1        0.0260
     34 C         140.1820  137.7710  164.7914 C.3     1  UNL1        0.0309
     35 H         140.9661  139.3138  161.2024 H       1  UNL1        0.1482
@<TRIPOS>UNITY_ATOM_ATTR
20 1
charge -1
@<TRIPOS>BOND
     1    20    21   ar
     2    21    22   ar
     3    21    19    1
     4    19     7    1
     5     7     6    1
     6     6     1    1
     7     1     2    1
     8     2     3    1
     9     3     4    1
    10     4    23    1
    11    23    24    1
    12    24    25    1
    13    25    26   ar
    14    26    27   ar
    15    27    28   ar
    16    28    29   ar
    17    29    30   ar
    18    29    31    1
    19    31    32    1
    20    32    33    1
    21    33    34    1
    22     4     5    1
    23     7     8    1
    24     8     9   ar
    25     9    10   ar
    26    10    11   ar
    27    11    12   ar
    28    12    14    1
    29    14    15   ar
    30    15    16   ar
    31    16    17   ar
    32    17    18   ar
    33    12    13   ar
    34     5     1    1
    35    13     8   ar
    36    30    25   ar
    37    18    14   ar
    38    34    28    1
    39    31    35    1
@<TRIPOS>MOLECULE
*****
 35 39 0 0 0
SMALL
GASTEIGER

@<TRIPOS>ATOM
      1 N         142.6026  140.2451  167.1905 N.3     1  UNL1       -0.2724
      2 C         142.9629  138.9349  166.5553 C.3     1  UNL1        0.0721
      3 C         143.7560  139.2234  165.3153 C.3     1  UNL1        0.0187
      4 C         143.8859  140.7120  165.1840 C.3     1  UNL1        0.0178
      5 C         143.1730  141.3434  166.3430 C.3     1  UNL1        0.0721
      6 C         141.8109  140.4254  168.4517 C.3     1  UNL1        0.0768
      7 C         140.3516  140.7652  168.3791 C.3     1  UNL1        0.0439
      8 C         139.6307  140.6994  167.0652 C.ar    1  UNL1       -0.0193
      9 C         138.9566  139.4279  166.6424 C.ar    1  UNL1       -0.0041
     10 C         138.2357  139.3622  165.3286 C.ar    1  UNL1        0.0012
     11 C         138.1890  140.5681  164.4377 C.ar    1  UNL1        0.0175
     12 C         138.8631  141.8396  164.8605 C.ar    1  UNL1        0.0652
     13 C         139.5840  141.9052  166.1742 C.ar    1  UNL1        0.0133
     14 N         138.8164  143.0454  163.9695 N.ar    1  UNL1       -0.2864
     15 C         139.7517  144.2169  164.0216 C.ar    1  UNL1        0.1022
     16 C         139.3395  145.1870  162.9543 C.ar    1  UNL1        0.1196
     17 N         138.1495  144.6149  162.2425 N.ar    1  UNL1       -0.2220
     18 C         137.8262  143.2913  162.8700 C.ar    1  UNL1        0.1828
     19 C         139.6133  141.1706  169.6202 C.3     1  UNL1        0.0474
     20 O         140.0399  143.7299  169.7561 O.co2   1  UNL1       -0.5492
     21 C         140.0575  142.3741  170.3977 C.2     1  UNL1        0.0507
     22 O         140.5191  142.2217  171.8167 O.co2   1  UNL1       -0.5492
     23 C         144.6028  141.4411  164.0866 C.3     1  UNL1        0.0077
     24 C         144.1124  142.7843  163.6336 C.3     1  UNL1        0.0459
     25 C         143.0639  142.8787  162.5649 C.ar    1  UNL1        0.0603
     26 C         142.0857  141.7579  162.3730 C.ar    1  UNL1        0.0145
     27 C         141.0373  141.8522  161.3044 C.ar    1  UNL1       -0.0003
     28 C         140.9670  143.0674  160.4277 C.ar    1  UNL1        0.0092
     29 C         141.9453  144.1882  160.6197 C.ar    1  UNL1        0.1240
     30 N         142.9937  144.0938  161.6883 N.ar    1  UNL1       -0.2356
     31 N         141.8751  145.4033  159.7431 N.pl3   1  UNL1       -0.3184
     32 C         140.8267  145.4977  158.6746 C.3     1  UNL1        0.0885
     33 C         139.8484  144.3769  158.4826 C.3     1  UNL1        0.0260
     34 C         139.9186  143.1617  159.3592 C.3     1  UNL1        0.0309
     35 H         142.5171  146.1390  159.8691 H       1  UNL1        0.1482
@<TRIPOS>UNITY_ATOM_ATTR
20 1
charge -1
@<TRIPOS>BOND
     1    20    21   ar
     2    21    22   ar
     3    21    19    1
     4    19     7    1
     5     7     6    1
     6     6     1    1
     7     1     2    1
     8     2     3    1
     9     3     4    1
    10     4    23    1
    11    23    24    1
    12    24    25    1
    13    25    26   ar
    14    26    27   ar
    15    27    28   ar
    16    28    29   ar
    17    29    30   ar
    18    29    31    1
    19    31    32    1
    20    32    33    1
    21    33    34    1
    22     4     5    1
    23     7     8    1
    24     8     9   ar
    25     9    10   ar
    26    10    11   ar
    27    11    12   ar
    28    12    14    1
    29    14    15   ar
    30    15    16   ar
    31    16    17   ar
    32    17    18   ar
    33    12    13   ar
    34     5     1    1
    35    13     8   ar
    36    30    25   ar
    37    18    14   ar
    38    34    28    1
    39    31    35    1
@<TRIPOS>MOLECULE
*****
 35 39 0 0 0
SMALL
GASTEIGER

@<TRIPOS>ATOM
      1 N         141.2815  142.5654  166.8396 N.3     1  UNL1       -0.2724
      2 C         142.1295  142.8467  165.6346 C.3     1  UNL1        0.0721
      3 C         141.3381  143.7168  164.7038 C.3     1  UNL1        0.0187
      4 C         140.0011  143.9734  165.3334 C.3     1  UNL1        0.0178
      5 C         139.9661  143.2618  166.6534 C.3     1  UNL1        0.0721
      6 C         141.6792  141.7338  168.0229 C.3     1  UNL1        0.0768
      7 C         141.0083  140.4157  168.2728 C.3     1  UNL1        0.0439
      8 C         140.3208  139.6990  167.1486 C.ar    1  UNL1       -0.0193
      9 C         138.8821  139.2967  167.2841 C.ar    1  UNL1       -0.0041
     10 C         138.1947  138.5801  166.1599 C.ar    1  UNL1        0.0012
     11 C         138.9459  138.2657  164.9002 C.ar    1  UNL1        0.0175
     12 C         140.3846  138.6680  164.7647 C.ar    1  UNL1        0.0652
     13 C         141.0720  139.3846  165.8889 C.ar    1  UNL1        0.0133
     14 N         141.1358  138.3536  163.5050 N.ar    1  UNL1       -0.2864
     15 C         140.5270  138.0264  162.1737 C.ar    1  UNL1        0.1022
     16 C         141.6426  137.7818  161.2013 C.ar    1  UNL1        0.1196
     17 N         142.9410  137.9579  161.9317 N.ar    1  UNL1       -0.2220
     18 C         142.6277  138.3113  163.3554 C.ar    1  UNL1        0.1828
     19 C         141.0248  139.8143  169.6468 C.3     1  UNL1        0.0474
     20 O         141.6549  141.3407  171.6527 O.co2   1  UNL1       -0.5492
     21 C         142.0291  140.2818  170.6582 C.2     1  UNL1        0.0507
     22 O         143.4075  139.6906  170.6751 O.co2   1  UNL1       -0.5492
     23 C         138.8935  144.7969  164.7461 C.3     1  UNL1        0.0077
     24 C         137.6606  144.1268  164.2161 C.3     1  UNL1        0.0459
     25 C         137.7767  143.0758  163.1522 C.ar    1  UNL1        0.0603
     26 C         137.6051  141.6283  163.5060 C.ar    1  UNL1        0.0145
     27 C         137.7212  140.5773  162.4421 C.ar    1  UNL1       -0.0003
     28 C         138.0089  140.9738  161.0244 C.ar    1  UNL1        0.0092
     29 C         138.1806  142.4213  160.6705 C.ar    1  UNL1        0.1240
     30 N         138.0645  143.4723  161.7345 N.ar    1  UNL1       -0.2356
     31 N         138.4684  142.8178  159.2528 N.pl3   1  UNL1       -0.3184
     32 C         138.5845  141.7668  158.1890 C.3     1  UNL1        0.0885
     33 C         138.4128  140.3193  158.5428 C.3     1  UNL1        0.0260
     34 C         138.1251  139.9228  159.9605 C.3     1  UNL1        0.0309
     35 H         138.5810  143.7679  159.0206 H       1  UNL1        0.1482
@<TRIPOS>UNITY_ATOM_ATTR
20 1
charge -1
@<TRIPOS>BOND
     1    20    21   ar
     2    21    22   ar
     3    21    19    1
     4    19     7    1
     5     7     6    1
     6     6     1    1
     7     1     2    1
     8     2     3    1
     9     3     4    1
    10     4    23    1
    11    23    24    1
    12    24    25    1
    13    25    26   ar
    14    26    27   ar
    15    27    28   ar
    16    28    29   ar
    17    29    30   ar
    18    29    31    1
    19    31    32    1
    20    32    33    1
    21    33    34    1
    22     4     5    1
    23     7     8    1
    24     8     9   ar
    25     9    10   ar
    26    10    11   ar
    27    11    12   ar
    28    12    14    1
    29    14    15   ar
    30    15    16   ar
    31    16    17   ar
    32    17    18   ar
    33    12    13   ar
    34     5     1    1
    35    13     8   ar
    36    30    25   ar
    37    18    14   ar
    38    34    28    1
    39    31    35    1
@<TRIPOS>MOLECULE
*****
 35 39 0 0 0
SMALL
GASTEIGER

@<TRIPOS>ATOM
      1 N         141.3999  138.2058  163.8605 N.3     1  UNL1       -0.2724
      2 C         140.2350  137.6716  164.6402 C.3     1  UNL1        0.0721
      3 C         139.0384  137.6595  163.7358 C.3     1  UNL1        0.0187
      4 C         139.4636  138.1863  162.3973 C.3     1  UNL1        0.0178
      5 C         140.9231  138.5239  162.4744 C.3     1  UNL1        0.0721
      6 C         142.7963  138.3897  164.3765 C.3     1  UNL1        0.0768
      7 C         143.3152  139.7680  164.6615 C.3     1  UNL1        0.0439
      8 C         142.4399  140.7706  165.3536 C.ar    1  UNL1       -0.0193
      9 C         141.8819  141.9338  164.5884 C.ar    1  UNL1       -0.0041
     10 C         141.0068  142.9363  165.2805 C.ar    1  UNL1        0.0012
     11 C         140.6896  142.7757  166.7378 C.ar    1  UNL1        0.0175
     12 C         141.2476  141.6124  167.5030 C.ar    1  UNL1        0.0652
     13 C         142.1228  140.6099  166.8109 C.ar    1  UNL1        0.0133
     14 N         140.9305  141.4518  168.9602 N.ar    1  UNL1       -0.2864
     15 C         141.3874  142.3554  170.0668 C.ar    1  UNL1        0.1022
     16 C         140.8401  141.8214  171.3573 C.ar    1  UNL1        0.1196
     17 N         140.0449  140.5877  171.0482 N.ar    1  UNL1       -0.2220
     18 C         140.1008  140.3593  169.5666 C.ar    1  UNL1        0.1828
     19 C         144.7091  140.1436  164.2545 C.3     1  UNL1        0.0474
     20 O         145.8614  141.8583  162.6789 O.co2   1  UNL1       -0.5492
     21 C         144.9721  140.6659  162.8732 C.2     1  UNL1        0.0507
     22 O         144.3459  139.9960  161.6862 O.co2   1  UNL1       -0.5492
     23 C         138.5838  138.3472  161.1932 C.3     1  UNL1        0.0077
     24 C         137.5331  139.4174  161.1696 C.3     1  UNL1        0.0459
     25 C         137.8684  140.8077  161.6221 C.ar    1  UNL1        0.0603
     26 C         137.4466  141.2756  162.9834 C.ar    1  UNL1        0.0145
     27 C         137.7819  142.6659  163.4358 C.ar    1  UNL1       -0.0003
     28 C         138.5390  143.5883  162.5269 C.ar    1  UNL1        0.0092
     29 C         138.9608  143.1204  161.1656 C.ar    1  UNL1        0.1240
     30 N         138.6254  141.7301  160.7132 N.ar    1  UNL1       -0.2356
     31 N         139.7178  144.0428  160.2567 N.pl3   1  UNL1       -0.3184
     32 C         140.0531  145.4330  160.7091 C.3     1  UNL1        0.0885
     33 C         139.6313  145.9009  162.0704 C.3     1  UNL1        0.0260
     34 C         138.8743  144.9786  162.9793 C.3     1  UNL1        0.0309
     35 H         139.9946  143.7357  159.3632 H       1  UNL1        0.1482
@<TRIPOS>UNITY_ATOM_ATTR
20 1
charge -1
@<TRIPOS>BOND
     1    20    21   ar
     2    21    22   ar
     3    21    19    1
     4    19     7    1
     5     7     6    1
     6     6     1    1
     7     1     2    1
     8     2     3    1
     9     3     4    1
    10     4    23    1
    11    23    24    1
    12    24    25    1
    13    25    26   ar
    14    26    27   ar
    15    27    28   ar
    16    28    29   ar
    17    29    30   ar
    18    29    31    1
    19    31    32    1
    20    32    33    1
    21    33    34    1
    22     4     5    1
    23     7     8    1
    24     8     9   ar
    25     9    10   ar
    26    10    11   ar
    27    11    12   ar
    28    12    14    1
    29    14    15   ar
    30    15    16   ar
    31    16    17   ar
    32    17    18   ar
    33    12    13   ar
    34     5     1    1
    35    13     8   ar
    36    30    25   ar
    37    18    14   ar
    38    34    28    1
    39    31    35    1
