@<TRIPOS>MOLECULE
*****
 28 31 0 0 0
SMALL
GASTEIGER

@<TRIPOS>ATOM
      1 C         138.6162  139.7443  165.4385 C.3     1  UNL1        0.1549
      2 C         139.2923  140.4530  166.5746 C.ar    1  UNL1        0.0028
      3 C         139.2260  139.8824  167.9602 C.ar    1  UNL1       -0.0023
      4 C         139.9020  140.5911  169.0963 C.ar    1  UNL1       -0.0003
      5 C         140.6444  141.8703  168.8467 C.ar    1  UNL1       -0.0000
      6 C         140.7108  142.4409  167.4610 C.ar    1  UNL1       -0.0003
      7 C         140.0347  141.7322  166.3249 C.ar    1  UNL1       -0.0023
      8 N         137.4893  140.4086  164.7044 N.pl3   1  UNL1       -0.3234
      9 H         136.5647  140.3086  165.0276 H       1  UNL1        0.1475
     10 C         138.2010  143.5303  162.3597 C.ar    1  UNL1        0.1590
     11 C         138.3345  142.8580  161.0254 C.ar    1  UNL1        0.1357
     12 N         138.1862  141.3693  160.9175 N.ar    1  UNL1       -0.2379
     13 C         137.9045  140.5528  162.1439 C.ar    1  UNL1        0.1133
     14 C         137.7710  141.2251  163.4781 C.ar    1  UNL1        0.0676
     15 C         137.9193  142.7138  163.5860 C.ar    1  UNL1        0.0544
     16 C         139.6021  145.6853  161.9813 C.3     1  UNL1        0.2525
     17 O         138.3492  145.0190  162.4676 O.3     1  UNL1       -0.4698
     18 C         139.0671  138.3712  165.0364 C.2     1  UNL1        0.1964
     19 O         138.4669  137.1629  165.6918 O.2     1  UNL1       -0.2892
     20 C         140.1181  138.2067  163.9789 C.2     1  UNL1        0.0569
     21 C         139.9084  137.6321  162.6092 C.2     1  UNL1        0.1014
     22 N         141.2241  137.6581  161.8893 N.2     1  UNL1       -0.2477
     23 C         142.2469  138.2488  162.8139 C.2     1  UNL1        0.0635
     24 C         143.7123  138.5217  162.6468 C.3     1  UNL1        0.0717
     25 C         144.4942  139.1336  163.7711 C.2     1  UNL1       -0.0198
     26 C         143.8107  139.4726  165.0626 C.2     1  UNL1       -0.0041
     27 C         142.3453  139.1997  165.2297 C.2     1  UNL1        0.0010
     28 C         141.5634  138.5878  164.1054 C.2     1  UNL1        0.0182
@<TRIPOS>BOND
     1    16    17    1
     2    17    10    1
     3    10    11   ar
     4    11    12   ar
     5    12    13   ar
     6    13    14   ar
     7    14     8    1
     8     8     1    1
     9     1    18    1
    10    18    19    2
    11    18    20    1
    12    20    21    2
    13    21    22    1
    14    22    23    2
    15    23    24    1
    16    24    25    1
    17    25    26    2
    18    26    27    1
    19    27    28    2
    20     1     2    1
    21     2     3   ar
    22     3     4   ar
    23     4     5   ar
    24     5     6   ar
    25     6     7   ar
    26    14    15   ar
    27    15    10   ar
    28    28    20    1
    29     7     2   ar
    30    28    23    1
    31     8     9    1
@<TRIPOS>MOLECULE
*****
 28 31 0 0 0
SMALL
GASTEIGER

@<TRIPOS>ATOM
      1 C         141.2039  140.4507  167.1225 C.3     1  UNL1        0.1549
      2 C         141.7097  141.3290  168.2283 C.ar    1  UNL1        0.0028
      3 C         140.8694  142.4676  168.7257 C.ar    1  UNL1       -0.0023
      4 C         141.3752  143.3459  169.8315 C.ar    1  UNL1       -0.0003
      5 C         142.7214  143.0856  170.4398 C.ar    1  UNL1       -0.0000
      6 C         143.5617  141.9470  169.9424 C.ar    1  UNL1       -0.0003
      7 C         143.0559  141.0686  168.8366 C.ar    1  UNL1       -0.0023
      8 N         142.1717  139.8006  166.1788 N.pl3   1  UNL1       -0.3234
      9 H         142.1748  138.8217  166.0738 H       1  UNL1        0.1475
     10 C         143.9022  142.9681  164.5289 C.ar    1  UNL1        0.1590
     11 C         145.0611  142.3244  163.8268 C.ar    1  UNL1        0.1357
     12 N         145.2568  140.8395  163.9088 N.ar    1  UNL1       -0.2379
     13 C         144.2936  139.9983  164.6928 C.ar    1  UNL1        0.1133
     14 C         143.1348  140.6419  165.3948 C.ar    1  UNL1        0.0676
     15 C         142.9391  142.1268  165.3128 C.ar    1  UNL1        0.0544
     16 C         142.6599  145.0224  163.5357 C.3     1  UNL1        0.2525
     17 O         143.7065  144.4530  164.4469 O.3     1  UNL1       -0.4698
     18 C         139.7302  140.2224  166.9606 C.2     1  UNL1        0.1964
     19 O         138.9423  139.5930  168.0709 O.2     1  UNL1       -0.2892
     20 C         139.0445  140.6236  165.6882 C.2     1  UNL1        0.0569
     21 C         138.3429  139.7010  164.7360 C.2     1  UNL1        0.1014
     22 N         137.8048  140.5250  163.6040 N.2     1  UNL1       -0.2477
     23 C         138.1738  141.9568  163.8566 C.2     1  UNL1        0.0635
     24 C         137.9112  143.2130  163.0801 C.3     1  UNL1        0.0717
     25 C         138.4147  144.5300  163.5917 C.2     1  UNL1       -0.0198
     26 C         139.1809  144.5909  164.8798 C.2     1  UNL1       -0.0041
     27 C         139.4435  143.3348  165.6563 C.2     1  UNL1        0.0010
     28 C         138.9400  142.0177  165.1447 C.2     1  UNL1        0.0182
@<TRIPOS>BOND
     1    16    17    1
     2    17    10    1
     3    10    11   ar
     4    11    12   ar
     5    12    13   ar
     6    13    14   ar
     7    14     8    1
     8     8     1    1
     9     1    18    1
    10    18    19    2
    11    18    20    1
    12    20    21    2
    13    21    22    1
    14    22    23    2
    15    23    24    1
    16    24    25    1
    17    25    26    2
    18    26    27    1
    19    27    28    2
    20     1     2    1
    21     2     3   ar
    22     3     4   ar
    23     4     5   ar
    24     5     6   ar
    25     6     7   ar
    26    14    15   ar
    27    15    10   ar
    28    28    20    1
    29     7     2   ar
    30    28    23    1
    31     8     9    1
@<TRIPOS>MOLECULE
*****
 28 31 0 0 0
SMALL
GASTEIGER

@<TRIPOS>ATOM
      1 C         139.8873  139.7672  166.5694 C.3     1  UNL1        0.1549
      2 C         139.9339  140.7240  167.7236 C.ar    1  UNL1        0.0028
      3 C         139.3717  140.3214  169.0547 C.ar    1  UNL1       -0.0023
      4 C         139.4183  141.2783  170.2089 C.ar    1  UNL1       -0.0003
      5 C         140.0270  142.6377  170.0320 C.ar    1  UNL1       -0.0000
      6 C         140.5892  143.0403  168.7009 C.ar    1  UNL1       -0.0003
      7 C         140.5426  142.0834  167.5466 C.ar    1  UNL1       -0.0023
      8 N         141.1350  139.0592  166.1313 N.pl3   1  UNL1       -0.3234
      9 H         141.5547  138.3913  166.7204 H       1  UNL1        0.1475
     10 C         142.5170  141.1036  163.0232 C.ar    1  UNL1        0.1590
     11 C         142.9600  139.9875  162.1241 C.ar    1  UNL1        0.1357
     12 N         142.7946  138.5621  162.5608 N.ar    1  UNL1       -0.2379
     13 C         142.1863  138.2526  163.8965 C.ar    1  UNL1        0.1133
     14 C         141.7433  139.3687  164.7956 C.ar    1  UNL1        0.0676
     15 C         141.9087  140.7941  164.3589 C.ar    1  UNL1        0.0544
     16 C         141.5766  143.5165  162.8146 C.3     1  UNL1        0.2525
     17 O         142.6824  142.5290  162.5865 O.3     1  UNL1       -0.4698
     18 C         138.5929  139.5183  165.8532 C.2     1  UNL1        0.1964
     19 O         137.5140  138.7117  166.5129 O.2     1  UNL1       -0.2892
     20 C         138.3777  140.0760  164.4775 C.2     1  UNL1        0.0569
     21 C         138.2690  139.2802  163.2106 C.2     1  UNL1        0.1014
     22 N         138.0574  140.2398  162.0773 N.2     1  UNL1       -0.2477
     23 C         138.0354  141.6286  162.6437 C.2     1  UNL1        0.0635
     24 C         137.8607  142.9723  162.0004 C.3     1  UNL1        0.0717
     25 C         137.8839  144.2147  162.8405 C.2     1  UNL1       -0.0198
     26 C         138.0818  144.1134  164.3239 C.2     1  UNL1       -0.0041
     27 C         138.2565  142.7697  164.9673 C.2     1  UNL1        0.0010
     28 C         138.2333  141.5273  164.1272 C.2     1  UNL1        0.0182
@<TRIPOS>BOND
     1    16    17    1
     2    17    10    1
     3    10    11   ar
     4    11    12   ar
     5    12    13   ar
     6    13    14   ar
     7    14     8    1
     8     8     1    1
     9     1    18    1
    10    18    19    2
    11    18    20    1
    12    20    21    2
    13    21    22    1
    14    22    23    2
    15    23    24    1
    16    24    25    1
    17    25    26    2
    18    26    27    1
    19    27    28    2
    20     1     2    1
    21     2     3   ar
    22     3     4   ar
    23     4     5   ar
    24     5     6   ar
    25     6     7   ar
    26    14    15   ar
    27    15    10   ar
    28    28    20    1
    29     7     2   ar
    30    28    23    1
    31     8     9    1
@<TRIPOS>MOLECULE
*****
 28 31 0 0 0
SMALL
GASTEIGER

@<TRIPOS>ATOM
      1 C         138.6576  139.8349  165.2632 C.3     1  UNL1        0.1549
      2 C         139.3331  140.6012  166.3616 C.ar    1  UNL1        0.0028
      3 C         139.8966  141.9642  166.0884 C.ar    1  UNL1       -0.0023
      4 C         140.5720  142.7305  167.1868 C.ar    1  UNL1       -0.0003
      5 C         140.6839  142.1337  168.5584 C.ar    1  UNL1       -0.0000
      6 C         140.1204  140.7707  168.8316 C.ar    1  UNL1       -0.0003
      7 C         139.4450  140.0044  167.7332 C.ar    1  UNL1       -0.0023
      8 N         137.5180  140.4528  164.5086 N.pl3   1  UNL1       -0.3234
      9 H         136.6116  140.4455  164.8929 H       1  UNL1        0.1475
     10 C         138.0880  140.8528  160.6016 C.ar    1  UNL1        0.1590
     11 C         138.2418  142.3406  160.4885 C.ar    1  UNL1        0.1357
     12 N         138.1543  143.1991  161.7153 N.ar    1  UNL1       -0.2379
     13 C         137.9130  142.5698  163.0554 C.ar    1  UNL1        0.1133
     14 C         137.7593  141.0820  163.1685 C.ar    1  UNL1        0.0676
     15 C         137.8468  140.2235  161.9417 C.ar    1  UNL1        0.0544
     16 C         139.3917  139.1496  159.1355 C.3     1  UNL1        0.2525
     17 O         138.1755  139.9943  159.3747 O.3     1  UNL1       -0.4698
     18 C         139.1218  138.4505  164.9193 C.2     1  UNL1        0.1964
     19 O         138.4923  137.2619  165.5832 O.2     1  UNL1       -0.2892
     20 C         140.2155  138.2548  163.9116 C.2     1  UNL1        0.0569
     21 C         140.0739  137.5893  162.5748 C.2     1  UNL1        0.1014
     22 N         141.4138  137.6136  161.9008 N.2     1  UNL1       -0.2477
     23 C         142.3834  138.2941  162.8210 C.2     1  UNL1        0.0635
     24 C         143.8449  138.6041  162.6878 C.3     1  UNL1        0.0717
     25 C         144.5658  139.3105  163.7974 C.2     1  UNL1       -0.0198
     26 C         143.8253  139.7068  165.0402 C.2     1  UNL1       -0.0041
     27 C         142.3637  139.3968  165.1733 C.2     1  UNL1        0.0010
     28 C         141.6428  138.6905  164.0637 C.2     1  UNL1        0.0182
@<TRIPOS>BOND
     1    16    17    1
     2    17    10    1
     3    10    11   ar
     4    11    12   ar
     5    12    13   ar
     6    13    14   ar
     7    14     8    1
     8     8     1    1
     9     1    18    1
    10    18    19    2
    11    18    20    1
    12    20    21    2
    13    21    22    1
    14    22    23    2
    15    23    24    1
    16    24    25    1
    17    25    26    2
    18    26    27    1
    19    27    28    2
    20     1     2    1
    21     2     3   ar
    22     3     4   ar
    23     4     5   ar
    24     5     6   ar
    25     6     7   ar
    26    14    15   ar
    27    15    10   ar
    28    28    20    1
    29     7     2   ar
    30    28    23    1
    31     8     9    1
@<TRIPOS>MOLECULE
*****
 28 31 0 0 0
SMALL
GASTEIGER

@<TRIPOS>ATOM
      1 C         141.2221  140.4963  166.7382 C.3     1  UNL1        0.1549
      2 C         141.5377  141.4080  167.8868 C.ar    1  UNL1        0.0028
      3 C         142.8611  141.3041  168.5851 C.ar    1  UNL1       -0.0023
      4 C         143.1766  142.2158  169.7337 C.ar    1  UNL1       -0.0003
      5 C         142.1687  143.2313  170.1839 C.ar    1  UNL1       -0.0000
      6 C         140.8453  143.3352  169.4855 C.ar    1  UNL1       -0.0003
      7 C         140.5298  142.4235  168.3369 C.ar    1  UNL1       -0.0023
      8 N         139.8620  139.8739  166.6264 N.pl3   1  UNL1       -0.3234
      9 H         139.3859  139.5823  167.4373 H       1  UNL1        0.1475
     10 C         137.8520  140.6560  163.2950 C.ar    1  UNL1        0.1590
     11 C         137.9574  139.3390  162.5846 C.ar    1  UNL1        0.1357
     12 N         138.6976  138.2004  163.2215 N.ar    1  UNL1       -0.2379
     13 C         139.3324  138.3788  164.5688 C.ar    1  UNL1        0.1133
     14 C         139.2271  139.6957  165.2792 C.ar    1  UNL1        0.0676
     15 C         138.4869  140.8343  164.6423 C.ar    1  UNL1        0.0544
     16 C         137.8024  143.1074  162.4361 C.3     1  UNL1        0.2525
     17 O         137.1118  141.7946  162.6582 O.3     1  UNL1       -0.4698
     18 C         142.2669  140.2070  165.7013 C.2     1  UNL1        0.1964
     19 O         142.5887  138.7882  165.3365 O.2     1  UNL1       -0.2892
     20 C         142.9896  141.3367  165.0293 C.2     1  UNL1        0.0569
     21 C         144.4375  141.3480  164.6376 C.2     1  UNL1        0.1014
     22 N         144.7340  142.6716  163.9973 N.2     1  UNL1       -0.2477
     23 C         143.4694  143.4784  163.9933 C.2     1  UNL1        0.0635
     24 C         143.1604  144.8576  163.4912 C.3     1  UNL1        0.0717
     25 C         141.7732  145.4118  163.6270 C.2     1  UNL1       -0.0198
     26 C         140.6950  144.5867  164.2649 C.2     1  UNL1       -0.0041
     27 C         141.0041  143.2075  164.7669 C.2     1  UNL1        0.0010
     28 C         142.3913  142.6533  164.6311 C.2     1  UNL1        0.0182
@<TRIPOS>BOND
     1    16    17    1
     2    17    10    1
     3    10    11   ar
     4    11    12   ar
     5    12    13   ar
     6    13    14   ar
     7    14     8    1
     8     8     1    1
     9     1    18    1
    10    18    19    2
    11    18    20    1
    12    20    21    2
    13    21    22    1
    14    22    23    2
    15    23    24    1
    16    24    25    1
    17    25    26    2
    18    26    27    1
    19    27    28    2
    20     1     2    1
    21     2     3   ar
    22     3     4   ar
    23     4     5   ar
    24     5     6   ar
    25     6     7   ar
    26    14    15   ar
    27    15    10   ar
    28    28    20    1
    29     7     2   ar
    30    28    23    1
    31     8     9    1
@<TRIPOS>MOLECULE
*****
 28 31 0 0 0
SMALL
GASTEIGER

@<TRIPOS>ATOM
      1 C         139.9972  143.9310  164.7509 C.3     1  UNL1        0.1549
      2 C         140.8782  143.1919  165.7140 C.ar    1  UNL1        0.0028
      3 C         140.3843  142.8817  167.0960 C.ar    1  UNL1       -0.0023
      4 C         141.2654  142.1426  168.0590 C.ar    1  UNL1       -0.0003
      5 C         142.6403  141.7138  167.6401 C.ar    1  UNL1       -0.0000
      6 C         143.1342  142.0240  166.2581 C.ar    1  UNL1       -0.0003
      7 C         142.2532  142.7631  165.2950 C.ar    1  UNL1       -0.0023
      8 N         140.5023  145.1688  164.0706 N.pl3   1  UNL1       -0.3234
      9 H         140.7560  145.9556  164.6052 H       1  UNL1        0.1475
     10 C         141.8469  144.5022  160.3967 C.ar    1  UNL1        0.1590
     11 C         140.8575  145.2859  159.5862 C.ar    1  UNL1        0.1357
     12 N         139.7497  146.0306  160.2706 N.ar    1  UNL1       -0.2379
     13 C         139.6313  145.9915  161.7653 C.ar    1  UNL1        0.1133
     14 C         140.6207  145.2078  162.5758 C.ar    1  UNL1        0.0676
     15 C         141.7285  144.4631  161.8915 C.ar    1  UNL1        0.0544
     16 C         143.7996  142.7908  160.4880 C.3     1  UNL1        0.2525
     17 O         142.9547  143.7576  159.7124 O.3     1  UNL1       -0.4698
     18 C         138.6110  143.4323  164.4682 C.2     1  UNL1        0.1964
     19 O         137.4291  144.1003  165.1059 O.2     1  UNL1       -0.2892
     20 C         138.4068  142.2657  163.5477 C.2     1  UNL1        0.0569
     21 C         137.9602  142.3385  162.1176 C.2     1  UNL1        0.1014
     22 N         137.8909  140.9392  161.5819 N.2     1  UNL1       -0.2477
     23 C         138.2946  140.0015  162.6809 C.2     1  UNL1        0.0635
     24 C         138.4130  138.5071  162.7322 C.3     1  UNL1        0.0717
     25 C         138.8503  137.8325  163.9986 C.2     1  UNL1       -0.0198
     26 C         139.1692  138.6523  165.2135 C.2     1  UNL1       -0.0041
     27 C         139.0508  140.1467  165.1622 C.2     1  UNL1        0.0010
     28 C         138.6134  140.8213  163.8959 C.2     1  UNL1        0.0182
@<TRIPOS>BOND
     1    16    17    1
     2    17    10    1
     3    10    11   ar
     4    11    12   ar
     5    12    13   ar
     6    13    14   ar
     7    14     8    1
     8     8     1    1
     9     1    18    1
    10    18    19    2
    11    18    20    1
    12    20    21    2
    13    21    22    1
    14    22    23    2
    15    23    24    1
    16    24    25    1
    17    25    26    2
    18    26    27    1
    19    27    28    2
    20     1     2    1
    21     2     3   ar
    22     3     4   ar
    23     4     5   ar
    24     5     6   ar
    25     6     7   ar
    26    14    15   ar
    27    15    10   ar
    28    28    20    1
    29     7     2   ar
    30    28    23    1
    31     8     9    1
@<TRIPOS>MOLECULE
*****
 28 31 0 0 0
SMALL
GASTEIGER

@<TRIPOS>ATOM
      1 C         140.1118  139.4833  165.9820 C.3     1  UNL1        0.1549
      2 C         140.7883  140.4565  166.9013 C.ar    1  UNL1        0.0028
      3 C         142.1224  141.0341  166.5320 C.ar    1  UNL1       -0.0023
      4 C         142.7988  142.0074  167.4514 C.ar    1  UNL1       -0.0003
      5 C         142.1410  142.4029  168.7401 C.ar    1  UNL1       -0.0000
      6 C         140.8069  141.8253  169.1094 C.ar    1  UNL1       -0.0003
      7 C         140.1305  140.8521  168.1901 C.ar    1  UNL1       -0.0023
      8 N         140.8734  138.3104  165.4395 N.pl3   1  UNL1       -0.3234
      9 H         141.1009  137.5557  166.0294 H       1  UNL1        0.1475
     10 C         143.0009  138.8911  162.1400 C.ar    1  UNL1        0.1590
     11 C         142.1187  138.2409  161.1159 C.ar    1  UNL1        0.1357
     12 N         140.8214  137.6139  161.5329 N.ar    1  UNL1       -0.2379
     13 C         140.4064  137.6371  162.9741 C.ar    1  UNL1        0.1133
     14 C         141.2886  138.2873  163.9983 C.ar    1  UNL1        0.0676
     15 C         142.5858  138.9143  163.5813 C.ar    1  UNL1        0.0544
     16 C         144.6574  140.8915  162.2077 C.3     1  UNL1        0.2525
     17 O         144.2981  139.5182  161.7230 O.3     1  UNL1       -0.4698
     18 C         138.6737  139.6830  165.6050 C.2     1  UNL1        0.1964
     19 O         137.5921  138.9912  166.3806 O.2     1  UNL1       -0.2892
     20 C         138.3172  140.5744  164.4525 C.2     1  UNL1        0.0569
     21 C         137.6531  140.1447  163.1780 C.2     1  UNL1        0.1014
     22 N         137.4878  141.3568  162.3100 N.2     1  UNL1       -0.2477
     23 C         138.0498  142.5356  163.0480 C.2     1  UNL1        0.0635
     24 C         138.1610  143.9868  162.6853 C.3     1  UNL1        0.0717
     25 C         138.7848  144.9545  163.6468 C.2     1  UNL1       -0.0198
     26 C         139.2974  144.4709  164.9709 C.2     1  UNL1       -0.0041
     27 C         139.1862  143.0197  165.3336 C.2     1  UNL1        0.0010
     28 C         138.5624  142.0521  164.3721 C.2     1  UNL1        0.0182
@<TRIPOS>BOND
     1    16    17    1
     2    17    10    1
     3    10    11   ar
     4    11    12   ar
     5    12    13   ar
     6    13    14   ar
     7    14     8    1
     8     8     1    1
     9     1    18    1
    10    18    19    2
    11    18    20    1
    12    20    21    2
    13    21    22    1
    14    22    23    2
    15    23    24    1
    16    24    25    1
    17    25    26    2
    18    26    27    1
    19    27    28    2
    20     1     2    1
    21     2     3   ar
    22     3     4   ar
    23     4     5   ar
    24     5     6   ar
    25     6     7   ar
    26    14    15   ar
    27    15    10   ar
    28    28    20    1
    29     7     2   ar
    30    28    23    1
    31     8     9    1
@<TRIPOS>MOLECULE
*****
 28 31 0 0 0
SMALL
GASTEIGER

@<TRIPOS>ATOM
      1 C         142.5737  141.0225  167.2151 C.3     1  UNL1        0.1549
      2 C         141.5661  141.3889  168.2642 C.ar    1  UNL1        0.0028
      3 C         140.4606  140.4352  168.6080 C.ar    1  UNL1       -0.0023
      4 C         139.4530  140.8017  169.6571 C.ar    1  UNL1       -0.0003
      5 C         139.5511  142.1219  170.3623 C.ar    1  UNL1       -0.0000
      6 C         140.6566  143.0757  170.0185 C.ar    1  UNL1       -0.0003
      7 C         141.6642  142.7092  168.9694 C.ar    1  UNL1       -0.0023
      8 N         143.3311  142.0980  166.4944 N.pl3   1  UNL1       -0.3234
      9 H         144.2353  142.3479  166.7932 H       1  UNL1        0.1475
     10 C         140.5997  143.6199  164.0505 C.ar    1  UNL1        0.1590
     11 C         141.4710  144.1825  162.9668 C.ar    1  UNL1        0.1357
     12 N         142.9623  144.0503  163.0590 N.ar    1  UNL1       -0.2379
     13 C         143.5823  143.3554  164.2349 C.ar    1  UNL1        0.1133
     14 C         142.7110  142.7928  165.3186 C.ar    1  UNL1        0.0676
     15 C         141.2197  142.9251  165.2264 C.ar    1  UNL1        0.0544
     16 C         138.3661  144.5870  164.9592 C.3     1  UNL1        0.2525
     17 O         139.1084  143.7521  163.9583 O.3     1  UNL1       -0.4698
     18 C         142.8238  139.5803  166.8868 C.2     1  UNL1        0.1964
     19 O         143.2757  138.6344  167.9595 O.2     1  UNL1       -0.2892
     20 C         142.6219  139.0842  165.4856 C.2     1  UNL1        0.0569
     21 C         143.6847  138.9525  164.4353 C.2     1  UNL1        0.1014
     22 N         143.0414  138.4196  163.1894 N.2     1  UNL1       -0.2477
     23 C         141.5811  138.2220  163.4697 C.2     1  UNL1        0.0635
     24 C         140.4540  137.7211  162.6161 C.3     1  UNL1        0.0717
     25 C         139.0677  137.6310  163.1816 C.2     1  UNL1       -0.0198
     26 C         138.8085  138.0418  164.6008 C.2     1  UNL1       -0.0041
     27 C         139.9355  138.5426  165.4545 C.2     1  UNL1        0.0010
     28 C         141.3219  138.6327  164.8889 C.2     1  UNL1        0.0182
@<TRIPOS>BOND
     1    16    17    1
     2    17    10    1
     3    10    11   ar
     4    11    12   ar
     5    12    13   ar
     6    13    14   ar
     7    14     8    1
     8     8     1    1
     9     1    18    1
    10    18    19    2
    11    18    20    1
    12    20    21    2
    13    21    22    1
    14    22    23    2
    15    23    24    1
    16    24    25    1
    17    25    26    2
    18    26    27    1
    19    27    28    2
    20     1     2    1
    21     2     3   ar
    22     3     4   ar
    23     4     5   ar
    24     5     6   ar
    25     6     7   ar
    26    14    15   ar
    27    15    10   ar
    28    28    20    1
    29     7     2   ar
    30    28    23    1
    31     8     9    1
@<TRIPOS>MOLECULE
*****
 28 31 0 0 0
SMALL
GASTEIGER

@<TRIPOS>ATOM
      1 C         142.5992  141.0855  166.3968 C.3     1  UNL1        0.1549
      2 C         141.5942  141.1862  167.5058 C.ar    1  UNL1        0.0028
      3 C         140.5602  140.1137  167.6806 C.ar    1  UNL1       -0.0023
      4 C         139.5552  140.2144  168.7895 C.ar    1  UNL1       -0.0003
      5 C         139.5842  141.3876  169.7236 C.ar    1  UNL1       -0.0000
      6 C         140.6182  142.4601  169.5489 C.ar    1  UNL1       -0.0003
      7 C         141.6232  142.3594  168.4399 C.ar    1  UNL1       -0.0023
      8 N         143.2479  139.7683  166.0898 N.pl3   1  UNL1       -0.3234
      9 H         143.7483  139.2909  166.7905 H       1  UNL1        0.1475
     10 C         141.7544  137.9025  162.9216 C.ar    1  UNL1        0.1590
     11 C         142.9069  137.9989  161.9665 C.ar    1  UNL1        0.1357
     12 N         144.1731  138.6852  162.3858 N.ar    1  UNL1       -0.2379
     13 C         144.2867  139.2750  163.7602 C.ar    1  UNL1        0.1133
     14 C         143.1342  139.1785  164.7154 C.ar    1  UNL1        0.0676
     15 C         141.8680  138.4923  164.2961 C.ar    1  UNL1        0.0544
     16 C         139.4384  137.9756  161.7466 C.3     1  UNL1        0.2525
     17 O         140.4882  137.2162  162.5023 O.3     1  UNL1       -0.4698
     18 C         142.9556  142.3021  165.5948 C.2     1  UNL1        0.1964
     19 O         144.1093  143.1645  166.0130 O.2     1  UNL1       -0.2892
     20 C         142.1581  142.6560  164.3746 C.2     1  UNL1        0.0569
     21 C         142.5925  142.4655  162.9516 C.2     1  UNL1        0.1014
     22 N         141.4891  142.9544  162.0608 N.2     1  UNL1       -0.2477
     23 C         140.3728  143.4471  162.9333 C.2     1  UNL1        0.0635
     24 C         139.0333  144.0397  162.6103 C.3     1  UNL1        0.0717
     25 C         138.1072  144.4480  163.7174 C.2     1  UNL1       -0.0198
     26 C         138.5207  144.2636  165.1475 C.2     1  UNL1       -0.0041
     27 C         139.8603  143.6709  165.4704 C.2     1  UNL1        0.0010
     28 C         140.7863  143.2627  164.3633 C.2     1  UNL1        0.0182
@<TRIPOS>BOND
     1    16    17    1
     2    17    10    1
     3    10    11   ar
     4    11    12   ar
     5    12    13   ar
     6    13    14   ar
     7    14     8    1
     8     8     1    1
     9     1    18    1
    10    18    19    2
    11    18    20    1
    12    20    21    2
    13    21    22    1
    14    22    23    2
    15    23    24    1
    16    24    25    1
    17    25    26    2
    18    26    27    1
    19    27    28    2
    20     1     2    1
    21     2     3   ar
    22     3     4   ar
    23     4     5   ar
    24     5     6   ar
    25     6     7   ar
    26    14    15   ar
    27    15    10   ar
    28    28    20    1
    29     7     2   ar
    30    28    23    1
    31     8     9    1
