@<TRIPOS>MOLECULE
*****
 25 27 0 0 0
SMALL
GASTEIGER

@<TRIPOS>ATOM
      1 N         139.8033  140.1459  167.9679 N.ar    1  UNL1       -0.2075
      2 C         139.9584  139.7236  166.5369 C.ar    1  UNL1        0.1378
      3 C         138.8198  138.8078  166.1979 C.ar    1  UNL1        0.1713
      4 N         137.9610  138.6641  167.4193 N.ar    1  UNL1       -0.1135
      5 N         138.5688  139.4912  168.5132 N.ar    1  UNL1       -0.0583
      6 F         143.4759  143.8109  170.9812 F       1  UNL1       -0.2018
      7 C         142.5577  142.8946  170.2278 C.ar    1  UNL1        0.1675
      8 C         142.9964  141.4988  169.8975 C.ar    1  UNL1        0.0335
      9 C         142.0783  140.5826  169.1441 C.ar    1  UNL1        0.0217
     10 C         140.7214  141.0622  168.7212 C.ar    1  UNL1        0.0869
     11 C         140.2827  142.4580  169.0515 C.ar    1  UNL1        0.0511
     12 C         141.2009  143.3742  169.8049 C.ar    1  UNL1        0.1689
     13 F         140.7622  144.7701  170.1352 F       1  UNL1       -0.2017
     14 N         138.5818  138.1510  164.8705 N.pl3   1  UNL1       -0.3142
     15 H         138.1686  137.2583  164.8300 H       1  UNL1        0.1483
     16 C         138.9733  138.8543  163.6048 C.3     1  UNL1        0.1058
     17 C         138.2135  140.0667  163.1547 C.3     1  UNL1        0.0936
     18 N         138.6509  141.4323  163.5954 N.3     1  UNL1       -0.2709
     19 C         140.0566  141.8886  163.3390 C.3     1  UNL1        0.0778
     20 C         140.4939  143.2542  163.7798 C.3     1  UNL1        0.0839
     21 C         139.5256  144.1632  164.4768 C.3     1  UNL1        0.2666
     22 F         138.9795  145.3772  165.1683 F       1  UNL1       -0.2042
     23 F         140.7417  145.0412  164.4606 F       1  UNL1       -0.2042
     24 C         138.1199  143.7068  164.7332 C.3     1  UNL1        0.0839
     25 C         137.6826  142.3413  164.2925 C.3     1  UNL1        0.0778
@<TRIPOS>BOND
     1     6     7    1
     2     7     8   ar
     3     8     9   ar
     4     9    10   ar
     5    10     1    1
     6     1     2   ar
     7     2     3   ar
     8     3    14    1
     9    14    16    1
    10    16    17    1
    11    17    18    1
    12    18    19    1
    13    19    20    1
    14    20    21    1
    15    21    22    1
    16    21    23    1
    17    21    24    1
    18    24    25    1
    19     3     4   ar
    20     4     5   ar
    21    10    11   ar
    22    11    12   ar
    23    12    13    1
    24    12     7   ar
    25     5     1   ar
    26    25    18    1
    27    14    15    1
@<TRIPOS>MOLECULE
*****
 25 27 0 0 0
SMALL
GASTEIGER

@<TRIPOS>ATOM
      1 N         142.5725  139.9857  167.2882 N.ar    1  UNL1       -0.2075
      2 C         142.9066  140.3345  165.8681 C.ar    1  UNL1        0.1378
      3 C         143.7520  139.2303  165.3061 C.ar    1  UNL1        0.1713
      4 N         143.9404  138.1989  166.3788 N.ar    1  UNL1       -0.1135
      5 N         143.2114  138.6658  167.6038 N.ar    1  UNL1       -0.0583
      6 F         139.2619  143.2897  171.0463 F       1  UNL1       -0.2018
      7 C         140.0896  142.4637  170.1068 C.ar    1  UNL1        0.1675
      8 C         141.4119  142.9791  169.6211 C.ar    1  UNL1        0.0335
      9 C         142.2395  142.1531  168.6816 C.ar    1  UNL1        0.0217
     10 C         141.7449  140.8117  168.2278 C.ar    1  UNL1        0.0869
     11 C         140.4226  140.2963  168.7135 C.ar    1  UNL1        0.0511
     12 C         139.5950  141.1223  169.6530 C.ar    1  UNL1        0.1689
     13 F         138.2726  140.6069  170.1387 F       1  UNL1       -0.2017
     14 N         144.3108  139.1683  163.9155 N.pl3   1  UNL1       -0.3142
     15 H         145.2678  139.3405  163.7614 H       1  UNL1        0.1483
     16 C         143.4116  138.8438  162.7596 C.3     1  UNL1        0.1058
     17 C         142.2131  137.9656  162.9653 C.3     1  UNL1        0.0936
     18 N         140.9965  138.5067  163.6564 N.3     1  UNL1       -0.2709
     19 C         140.3661  137.7359  164.7781 C.3     1  UNL1        0.0778
     20 C         139.1496  138.2771  165.4691 C.3     1  UNL1        0.0839
     21 C         138.5637  139.5890  165.0384 C.3     1  UNL1        0.2666
     22 F         137.6485  140.7765  164.9916 F       1  UNL1       -0.2042
     23 F         137.6154  139.2306  166.1439 F       1  UNL1       -0.2042
     24 C         139.1943  140.3598  163.9166 C.3     1  UNL1        0.0839
     25 C         140.4107  139.8187  163.2257 C.3     1  UNL1        0.0778
@<TRIPOS>BOND
     1     6     7    1
     2     7     8   ar
     3     8     9   ar
     4     9    10   ar
     5    10     1    1
     6     1     2   ar
     7     2     3   ar
     8     3    14    1
     9    14    16    1
    10    16    17    1
    11    17    18    1
    12    18    19    1
    13    19    20    1
    14    20    21    1
    15    21    22    1
    16    21    23    1
    17    21    24    1
    18    24    25    1
    19     3     4   ar
    20     4     5   ar
    21    10    11   ar
    22    11    12   ar
    23    12    13    1
    24    12     7   ar
    25     5     1   ar
    26    25    18    1
    27    14    15    1
@<TRIPOS>MOLECULE
*****
 25 27 0 0 0
SMALL
GASTEIGER

@<TRIPOS>ATOM
      1 N         138.3444  141.6102  162.9759 N.ar    1  UNL1       -0.2075
      2 C         138.9141  142.9343  163.3908 C.ar    1  UNL1        0.1378
      3 C         138.6002  143.9315  162.3151 C.ar    1  UNL1        0.1713
      4 N         137.8366  143.2238  161.2354 N.ar    1  UNL1       -0.1135
      5 N         137.6784  141.7891  161.6437 N.ar    1  UNL1       -0.0583
      6 F         138.6717  136.4962  166.0967 F       1  UNL1       -0.2018
      7 C         138.5899  137.7747  165.3165 C.ar    1  UNL1        0.1675
      8 C         138.8810  137.7753  163.8450 C.ar    1  UNL1        0.0335
      9 C         138.7991  139.0538  163.0648 C.ar    1  UNL1        0.0217
     10 C         138.4262  140.3317  163.7561 C.ar    1  UNL1        0.0869
     11 C         138.1351  140.3311  165.2275 C.ar    1  UNL1        0.0511
     12 C         138.2170  139.0526  166.0077 C.ar    1  UNL1        0.1689
     13 F         137.9259  139.0520  167.4793 F       1  UNL1       -0.2017
     14 N         138.9829  145.3819  162.3186 N.pl3   1  UNL1       -0.3142
     15 H         138.4542  146.0293  162.8388 H       1  UNL1        0.1483
     16 C         140.1712  145.8459  161.5294 C.3     1  UNL1        0.1058
     17 C         141.2082  144.8577  161.0844 C.3     1  UNL1        0.0936
     18 N         142.2604  144.3904  162.0460 N.3     1  UNL1       -0.2709
     19 C         142.4106  145.0628  163.3783 C.3     1  UNL1        0.0778
     20 C         143.4628  144.5954  164.3399 C.3     1  UNL1        0.0839
     21 C         144.3647  143.4557  163.9691 C.3     1  UNL1        0.2666
     22 F         145.4496  142.4252  164.0735 F       1  UNL1       -0.2042
     23 F         144.8917  143.7703  165.3377 F       1  UNL1       -0.2042
     24 C         144.2144  142.7833  162.6367 C.3     1  UNL1        0.0839
     25 C         143.1623  143.2506  161.6751 C.3     1  UNL1        0.0778
@<TRIPOS>BOND
     1     6     7    1
     2     7     8   ar
     3     8     9   ar
     4     9    10   ar
     5    10     1    1
     6     1     2   ar
     7     2     3   ar
     8     3    14    1
     9    14    16    1
    10    16    17    1
    11    17    18    1
    12    18    19    1
    13    19    20    1
    14    20    21    1
    15    21    22    1
    16    21    23    1
    17    21    24    1
    18    24    25    1
    19     3     4   ar
    20     4     5   ar
    21    10    11   ar
    22    11    12   ar
    23    12    13    1
    24    12     7   ar
    25     5     1   ar
    26    25    18    1
    27    14    15    1
@<TRIPOS>MOLECULE
*****
 25 27 0 0 0
SMALL
GASTEIGER

@<TRIPOS>ATOM
      1 N         139.8027  140.5459  167.4318 N.ar    1  UNL1       -0.2075
      2 C         139.6453  140.7331  165.9518 C.ar    1  UNL1        0.1378
      3 C         138.6385  139.7345  165.4628 C.ar    1  UNL1        0.1713
      4 N         138.1738  138.9301  166.6404 N.ar    1  UNL1       -0.1135
      5 N         138.8933  139.4316  167.8573 N.ar    1  UNL1       -0.0583
      6 F         143.4328  143.7006  171.0193 F       1  UNL1       -0.2018
      7 C         142.5253  142.9120  170.1224 C.ar    1  UNL1        0.1675
      8 C         142.9466  141.5585  169.6319 C.ar    1  UNL1        0.0335
      9 C         142.0391  140.7699  168.7350 C.ar    1  UNL1        0.0217
     10 C         140.7102  141.3346  168.3286 C.ar    1  UNL1        0.0869
     11 C         140.2889  142.6880  168.8192 C.ar    1  UNL1        0.0511
     12 C         141.1964  143.4767  169.7160 C.ar    1  UNL1        0.1689
     13 F         140.7750  144.8302  170.2065 F       1  UNL1       -0.2017
     14 N         138.1775  139.5693  164.0449 N.pl3   1  UNL1       -0.3142
     15 H         137.4975  140.1771  163.6745 H       1  UNL1        0.1483
     16 C         138.7527  138.4780  163.1916 C.3     1  UNL1        0.1058
     17 C         139.8832  137.6386  163.7088 C.3     1  UNL1        0.0936
     18 N         141.2736  138.1999  163.7559 N.3     1  UNL1       -0.2709
     19 C         142.0709  138.1228  165.0240 C.3     1  UNL1        0.0778
     20 C         143.4612  138.6841  165.0710 C.3     1  UNL1        0.0839
     21 C         144.0540  139.3223  163.8499 C.3     1  UNL1        0.2666
     22 F         145.0431  140.0177  162.9621 F       1  UNL1       -0.2042
     23 F         145.1949  139.4868  164.8098 F       1  UNL1       -0.2042
     24 C         143.2566  139.3994  162.5818 C.3     1  UNL1        0.0839
     25 C         141.8664  138.8381  162.5348 C.3     1  UNL1        0.0778
@<TRIPOS>BOND
     1     6     7    1
     2     7     8   ar
     3     8     9   ar
     4     9    10   ar
     5    10     1    1
     6     1     2   ar
     7     2     3   ar
     8     3    14    1
     9    14    16    1
    10    16    17    1
    11    17    18    1
    12    18    19    1
    13    19    20    1
    14    20    21    1
    15    21    22    1
    16    21    23    1
    17    21    24    1
    18    24    25    1
    19     3     4   ar
    20     4     5   ar
    21    10    11   ar
    22    11    12   ar
    23    12    13    1
    24    12     7   ar
    25     5     1   ar
    26    25    18    1
    27    14    15    1
@<TRIPOS>MOLECULE
*****
 25 27 0 0 0
SMALL
GASTEIGER

@<TRIPOS>ATOM
      1 N         143.2284  142.7837  163.9289 N.ar    1  UNL1       -0.2075
      2 C         142.5066  143.0294  162.6372 C.ar    1  UNL1        0.1378
      3 C         142.5527  144.5015  162.3531 C.ar    1  UNL1        0.1713
      4 N         143.3030  145.1657  163.4693 N.ar    1  UNL1       -0.1135
      5 N         143.7206  144.1040  164.4432 N.ar    1  UNL1       -0.0583
      6 F         144.0096  137.4553  166.5743 F       1  UNL1       -0.2018
      7 C         143.8143  138.7874  165.9130 C.ar    1  UNL1        0.1675
      8 C         144.6636  139.1733  164.7384 C.ar    1  UNL1        0.0335
      9 C         144.4683  140.5054  164.0770 C.ar    1  UNL1        0.0217
     10 C         143.4237  141.4516  164.5903 C.ar    1  UNL1        0.0869
     11 C         142.5744  141.0657  165.7648 C.ar    1  UNL1        0.0511
     12 C         142.7697  139.7336  166.4262 C.ar    1  UNL1        0.1689
     13 F         141.9203  139.3477  167.6008 F       1  UNL1       -0.2017
     14 N         141.9537  145.1888  161.1620 N.pl3   1  UNL1       -0.3142
     15 H         142.5267  145.4525  160.4061 H       1  UNL1        0.1483
     16 C         140.4816  145.4742  161.1225 C.3     1  UNL1        0.1058
     17 C         139.6826  145.4699  162.3920 C.3     1  UNL1        0.0936
     18 N         139.1242  144.1826  162.9224 N.3     1  UNL1       -0.2709
     19 C         139.3559  143.7978  164.3534 C.3     1  UNL1        0.0778
     20 C         138.7974  142.5105  164.8837 C.3     1  UNL1        0.0839
     21 C         138.0075  141.6081  163.9829 C.3     1  UNL1        0.2666
     22 F         137.2006  140.4299  163.5236 F       1  UNL1       -0.2042
     23 F         137.9589  140.8141  165.2546 F       1  UNL1       -0.2042
     24 C         137.7758  141.9930  162.5517 C.3     1  UNL1        0.0839
     25 C         138.3342  143.2802  162.0214 C.3     1  UNL1        0.0778
@<TRIPOS>BOND
     1     6     7    1
     2     7     8   ar
     3     8     9   ar
     4     9    10   ar
     5    10     1    1
     6     1     2   ar
     7     2     3   ar
     8     3    14    1
     9    14    16    1
    10    16    17    1
    11    17    18    1
    12    18    19    1
    13    19    20    1
    14    20    21    1
    15    21    22    1
    16    21    23    1
    17    21    24    1
    18    24    25    1
    19     3     4   ar
    20     4     5   ar
    21    10    11   ar
    22    11    12   ar
    23    12    13    1
    24    12     7   ar
    25     5     1   ar
    26    25    18    1
    27    14    15    1
@<TRIPOS>MOLECULE
*****
 25 27 0 0 0
SMALL
GASTEIGER

@<TRIPOS>ATOM
      1 N         138.9051  142.3653  164.1751 N.ar    1  UNL1       -0.2075
      2 C         138.9318  142.9009  162.7742 C.ar    1  UNL1        0.1378
      3 C         139.0310  144.3956  162.8513 C.ar    1  UNL1        0.1713
      4 N         139.0656  144.7838  164.2998 N.ar    1  UNL1       -0.1135
      5 N         138.9878  143.5290  165.1179 N.ar    1  UNL1       -0.0583
      6 F         138.5327  136.5831  165.7334 F       1  UNL1       -0.2018
      7 C         138.6258  138.0287  165.3439 C.ar    1  UNL1        0.1675
      8 C         138.6296  139.0919  166.4019 C.ar    1  UNL1        0.0335
      9 C         138.7226  140.5374  166.0123 C.ar    1  UNL1        0.0217
     10 C         138.8120  140.9197  164.5647 C.ar    1  UNL1        0.0869
     11 C         138.8082  139.8565  163.5066 C.ar    1  UNL1        0.0511
     12 C         138.7151  138.4110  163.8962 C.ar    1  UNL1        0.1689
     13 F         138.7114  137.3478  162.8380 F       1  UNL1       -0.2017
     14 N         139.0859  145.3369  161.6847 N.pl3   1  UNL1       -0.3142
     15 H         138.2525  145.6420  161.2586 H       1  UNL1        0.1483
     16 C         140.4108  145.8134  161.1673 C.3     1  UNL1        0.1058
     17 C         141.4678  144.8202  160.7849 C.3     1  UNL1        0.0936
     18 N         142.4675  144.3592  161.8038 N.3     1  UNL1       -0.2709
     19 C         143.3865  143.2163  161.4892 C.3     1  UNL1        0.0778
     20 C         144.3863  142.7554  162.5081 C.3     1  UNL1        0.0839
     21 C         144.4669  143.4374  163.8416 C.3     1  UNL1        0.2666
     22 F         144.9215  143.7616  165.2339 F       1  UNL1       -0.2042
     23 F         145.5439  142.4071  164.0105 F       1  UNL1       -0.2042
     24 C         143.5478  144.5803  164.1563 C.3     1  UNL1        0.0839
     25 C         142.5481  145.0412  163.1374 C.3     1  UNL1        0.0778
@<TRIPOS>BOND
     1     6     7    1
     2     7     8   ar
     3     8     9   ar
     4     9    10   ar
     5    10     1    1
     6     1     2   ar
     7     2     3   ar
     8     3    14    1
     9    14    16    1
    10    16    17    1
    11    17    18    1
    12    18    19    1
    13    19    20    1
    14    20    21    1
    15    21    22    1
    16    21    23    1
    17    21    24    1
    18    24    25    1
    19     3     4   ar
    20     4     5   ar
    21    10    11   ar
    22    11    12   ar
    23    12    13    1
    24    12     7   ar
    25     5     1   ar
    26    25    18    1
    27    14    15    1
@<TRIPOS>MOLECULE
*****
 25 27 0 0 0
SMALL
GASTEIGER

@<TRIPOS>ATOM
      1 N         139.5311  139.1711  165.1775 N.ar    1  UNL1       -0.2075
      2 C         138.6550  140.0430  164.3277 C.ar    1  UNL1        0.1378
      3 C         138.3162  139.2834  163.0793 C.ar    1  UNL1        0.1713
      4 N         138.9830  137.9420  163.1576 N.ar    1  UNL1       -0.1135
      5 N         139.7338  137.8726  164.4544 N.ar    1  UNL1       -0.0583
      6 F         141.8223  140.6223  170.5295 F       1  UNL1       -0.2018
      7 C         141.2495  140.2595  169.1915 C.ar    1  UNL1        0.1675
      8 C         142.1630  139.9084  168.0548 C.ar    1  UNL1        0.0335
      9 C         141.5902  139.5456  166.7168 C.ar    1  UNL1        0.0217
     10 C         140.1039  139.5339  166.5155 C.ar    1  UNL1        0.0869
     11 C         139.1903  139.8850  167.6522 C.ar    1  UNL1        0.0511
     12 C         139.7631  140.2478  168.9902 C.ar    1  UNL1        0.1689
     13 F         138.8495  140.5990  170.1269 F       1  UNL1       -0.2017
     14 N         137.4609  139.7784  161.9509 N.pl3   1  UNL1       -0.3142
     15 H         136.4810  139.7009  162.0053 H       1  UNL1        0.1483
     16 C         138.0987  140.3914  160.7395 C.3     1  UNL1        0.1058
     17 C         138.1848  141.8834  160.6112 C.3     1  UNL1        0.0936
     18 N         138.6519  142.7103  161.7723 N.3     1  UNL1       -0.2709
     19 C         137.6512  143.3689  162.6748 C.3     1  UNL1        0.0778
     20 C         138.1184  144.1958  163.8359 C.3     1  UNL1        0.0839
     21 C         139.5863  144.3639  164.0945 C.3     1  UNL1        0.2666
     22 F         140.8604  144.8152  164.7449 F       1  UNL1       -0.2042
     23 F         139.0279  145.1793  165.2229 F       1  UNL1       -0.2042
     24 C         140.5871  143.7052  163.1919 C.3     1  UNL1        0.0839
     25 C         140.1199  142.8784  162.0309 C.3     1  UNL1        0.0778
@<TRIPOS>BOND
     1     6     7    1
     2     7     8   ar
     3     8     9   ar
     4     9    10   ar
     5    10     1    1
     6     1     2   ar
     7     2     3   ar
     8     3    14    1
     9    14    16    1
    10    16    17    1
    11    17    18    1
    12    18    19    1
    13    19    20    1
    14    20    21    1
    15    21    22    1
    16    21    23    1
    17    21    24    1
    18    24    25    1
    19     3     4   ar
    20     4     5   ar
    21    10    11   ar
    22    11    12   ar
    23    12    13    1
    24    12     7   ar
    25     5     1   ar
    26    25    18    1
    27    14    15    1
@<TRIPOS>MOLECULE
*****
 25 27 0 0 0
SMALL
GASTEIGER

@<TRIPOS>ATOM
      1 N         140.5735  139.2318  165.5571 N.ar    1  UNL1       -0.2075
      2 C         139.4291  138.5266  164.8914 C.ar    1  UNL1        0.1378
      3 C         139.7974  138.2985  163.4553 C.ar    1  UNL1        0.1713
      4 N         141.1694  138.8627  163.2334 N.ar    1  UNL1       -0.1135
      5 N         141.6490  139.4395  164.5324 N.ar    1  UNL1       -0.0583
      6 F         140.8076  140.9244  171.3086 F       1  UNL1       -0.2018
      7 C         140.7491  140.5013  169.8707 C.ar    1  UNL1        0.1675
      8 C         139.4218  140.2971  169.2024 C.ar    1  UNL1        0.0335
      9 C         139.3633  139.8739  167.7645 C.ar    1  UNL1        0.0217
     10 C         140.6320  139.6549  166.9949 C.ar    1  UNL1        0.0869
     11 C         141.9593  139.8592  167.6632 C.ar    1  UNL1        0.0511
     12 C         142.0178  140.2823  169.1011 C.ar    1  UNL1        0.1689
     13 F         143.3451  140.4866  169.7694 F       1  UNL1       -0.2017
     14 N         138.9436  137.6245  162.4225 N.pl3   1  UNL1       -0.3142
     15 H         139.1425  136.7008  162.1458 H       1  UNL1        0.1483
     16 C         137.7866  138.3578  161.8112 C.3     1  UNL1        0.1058
     17 C         138.0248  139.6148  161.0281 C.3     1  UNL1        0.0936
     18 N         137.9928  140.9461  161.7188 N.3     1  UNL1       -0.2709
     19 C         138.5254  142.1642  161.0244 C.3     1  UNL1        0.0778
     20 C         138.4935  143.4954  161.7151 C.3     1  UNL1        0.0839
     21 C         137.9290  143.6083  163.1001 C.3     1  UNL1        0.2666
     22 F         137.4973  144.2178  164.4010 F       1  UNL1       -0.2042
     23 F         138.3117  145.0382  162.8574 F       1  UNL1       -0.2042
     24 C         137.3964  142.3901  163.7946 C.3     1  UNL1        0.0839
     25 C         137.4283  141.0590  163.1039 C.3     1  UNL1        0.0778
@<TRIPOS>BOND
     1     6     7    1
     2     7     8   ar
     3     8     9   ar
     4     9    10   ar
     5    10     1    1
     6     1     2   ar
     7     2     3   ar
     8     3    14    1
     9    14    16    1
    10    16    17    1
    11    17    18    1
    12    18    19    1
    13    19    20    1
    14    20    21    1
    15    21    22    1
    16    21    23    1
    17    21    24    1
    18    24    25    1
    19     3     4   ar
    20     4     5   ar
    21    10    11   ar
    22    11    12   ar
    23    12    13    1
    24    12     7   ar
    25     5     1   ar
    26    25    18    1
    27    14    15    1
@<TRIPOS>MOLECULE
*****
 25 27 0 0 0
SMALL
GASTEIGER

@<TRIPOS>ATOM
      1 N         142.6721  143.3025  164.1332 N.ar    1  UNL1       -0.2075
      2 C         142.3230  142.9248  162.7241 C.ar    1  UNL1        0.1378
      3 C         142.9400  143.9380  161.8061 C.ar    1  UNL1        0.1713
      4 N         143.6704  144.9420  162.6479 N.ar    1  UNL1       -0.1135
      5 N         143.5048  144.5492  164.0860 N.ar    1  UNL1       -0.0583
      6 F         141.0264  140.3457  169.0879 F       1  UNL1       -0.2018
      7 C         141.4378  141.0849  167.8492 C.ar    1  UNL1        0.1675
      8 C         142.8128  141.6763  167.7506 C.ar    1  UNL1        0.0335
      9 C         143.2242  142.4155  166.5119 C.ar    1  UNL1        0.0217
     10 C         142.2607  142.5633  165.3718 C.ar    1  UNL1        0.0869
     11 C         140.8857  141.9719  165.4705 C.ar    1  UNL1        0.0511
     12 C         140.4743  141.2327  166.7092 C.ar    1  UNL1        0.1689
     13 F         139.0993  140.6413  166.8077 F       1  UNL1       -0.2017
     14 N         142.8434  143.9459  160.3093 N.pl3   1  UNL1       -0.3142
     15 H         143.6187  143.6784  159.7646 H       1  UNL1        0.1483
     16 C         141.5657  144.3613  159.6423 C.3     1  UNL1        0.1058
     17 C         140.5646  145.1910  160.3902 C.3     1  UNL1        0.0936
     18 N         139.6484  144.5436  161.3861 N.3     1  UNL1       -0.2709
     19 C         138.9640  143.2527  161.0470 C.3     1  UNL1        0.0778
     20 C         138.0478  142.6054  162.0429 C.3     1  UNL1        0.0839
     21 C         137.8161  143.2491  163.3777 C.3     1  UNL1        0.2666
     22 F         137.2823  143.4712  164.7619 F       1  UNL1       -0.2042
     23 F         136.9463  142.0353  163.5193 F       1  UNL1       -0.2042
     24 C         138.5005  144.5400  163.7168 C.3     1  UNL1        0.0839
     25 C         139.4167  145.1873  162.7210 C.3     1  UNL1        0.0778
@<TRIPOS>BOND
     1     6     7    1
     2     7     8   ar
     3     8     9   ar
     4     9    10   ar
     5    10     1    1
     6     1     2   ar
     7     2     3   ar
     8     3    14    1
     9    14    16    1
    10    16    17    1
    11    17    18    1
    12    18    19    1
    13    19    20    1
    14    20    21    1
    15    21    22    1
    16    21    23    1
    17    21    24    1
    18    24    25    1
    19     3     4   ar
    20     4     5   ar
    21    10    11   ar
    22    11    12   ar
    23    12    13    1
    24    12     7   ar
    25     5     1   ar
    26    25    18    1
    27    14    15    1
