@<TRIPOS>MOLECULE
*****
 34 34 0 0 0
SMALL
GASTEIGER

@<TRIPOS>ATOM
      1 C         140.2723  140.8018  166.5543 C.ar    1  UNL1        0.1125
      2 C         139.8652  142.1094  165.9424 C.ar    1  UNL1        0.0464
      3 C         140.9045  143.0209  165.3602 C.ar    1  UNL1        0.1391
      4 C         142.3509  142.6247  165.3897 C.ar    1  UNL1        0.0400
      5 C         142.7580  141.3171  166.0015 C.ar    1  UNL1        0.0402
      6 C         141.7187  140.4056  166.5838 C.ar    1  UNL1        0.1449
      7 C         139.2329  139.8903  167.1365 C.2     1  UNL1        0.3444
      8 O         139.1217  139.7332  168.6241 O.2     1  UNL1       -0.2448
      9 C         137.6720  137.8597  166.7008 C.3     1  UNL1        0.2560
     10 O         138.3049  139.1360  166.2312 O.3     1  UNL1       -0.4413
     11 O         140.4974  144.3286  164.7483 O.3     1  UNL1       -0.4727
     12 C         141.4612  145.0834  163.8816 C.3     1  UNL1        0.2398
     13 C         141.3139  145.0484  162.3893 C.3     1  UNL1        0.2184
     14 C         140.0090  145.4297  161.7553 C.3     1  UNL1        0.2082
     15 O         138.8653  144.4591  161.7510 O.3     1  UNL1       -0.2383
     16 S         139.0335  143.1045  161.1291 S.3     1  UNL1       -0.0001
     17 O         139.1974  143.7434  159.7819 O.2     1  UNL1       -0.3452
     18 O         138.8697  142.4657  162.4763 O.2     1  UNL1       -0.3452
     19 O         139.2018  141.7499  160.5072 O.co2   1  UNL1       -0.2682
     20 O         142.4715  144.6320  161.5309 O.3     1  UNL1       -0.2371
     21 S         143.4499  143.6126  162.0342 S.3     1  UNL1       -0.0000
     22 O         144.4125  144.7088  162.3831 O.2     1  UNL1       -0.3452
     23 O         142.4873  142.5164  161.6854 O.2     1  UNL1       -0.3452
     24 O         144.4284  142.5932  162.5376 O.co2   1  UNL1       -0.2682
     25 O         142.1258  139.0979  167.1957 O.3     1  UNL1       -0.4752
     26 C         142.9408  139.0805  168.4548 C.3     1  UNL1        0.2055
     27 C         142.5323  139.9261  169.6245 C.3     1  UNL1        0.0500
     28 C         143.2030  141.2457  169.8666 C.3     1  UNL1        0.0384
     29 C         142.4379  142.5219  169.6770 C.3     1  UNL1        0.1726
     30 O         140.9636  142.4789  169.4037 O.3     1  UNL1       -0.2412
     31 S         139.9976  143.0259  170.4125 S.3     1  UNL1       -0.0001
     32 O         140.0385  144.3601  169.7282 O.2     1  UNL1       -0.3452
     33 O         139.9567  141.6918  171.0968 O.2     1  UNL1       -0.3452
     34 O         139.0316  143.5729  171.4212 O.co2   1  UNL1       -0.2682
@<TRIPOS>UNITY_ATOM_ATTR
19 1
charge -1
24 1
charge -1
34 1
charge -1
@<TRIPOS>BOND
     1     9    10    1
     2    10     7    1
     3     7     8    2
     4     7     1    1
     5     1     2   ar
     6     2     3   ar
     7     3    11    1
     8    11    12    1
     9    13    12    1
    10    13    14    1
    11    14    15    1
    12    15    16    1
    13    16    17    2
    14    16    18    2
    15    16    19    1
    16    13    20    1
    17    20    21    1
    18    21    22    2
    19    21    23    2
    20    21    24    1
    21     3     4   ar
    22     4     5   ar
    23     5     6   ar
    24     6    25    1
    25    25    26    1
    26    26    27    1
    27    27    28    1
    28    28    29    1
    29    29    30    1
    30    30    31    1
    31    31    32    2
    32    31    33    2
    33    31    34    1
    34     6     1   ar
@<TRIPOS>MOLECULE
*****
 34 34 0 0 0
SMALL
GASTEIGER

@<TRIPOS>ATOM
      1 C         140.5250  140.2536  164.7694 C.ar    1  UNL1        0.1125
      2 C         141.4274  140.9792  163.8160 C.ar    1  UNL1        0.0464
      3 C         141.6944  142.4434  164.0031 C.ar    1  UNL1        0.1391
      4 C         141.0590  143.1819  165.1436 C.ar    1  UNL1        0.0400
      5 C         140.1565  142.4563  166.0970 C.ar    1  UNL1        0.0402
      6 C         139.8895  140.9921  165.9099 C.ar    1  UNL1        0.1449
      7 C         140.2579  138.7895  164.5823 C.2     1  UNL1        0.3444
      8 O         141.3205  137.7847  164.9158 O.2     1  UNL1       -0.2448
      9 C         138.7620  138.0136  162.6049 C.3     1  UNL1        0.2560
     10 O         138.9284  138.3301  164.0617 O.3     1  UNL1       -0.4413
     11 O         142.5969  143.1690  163.0497 O.3     1  UNL1       -0.4727
     12 C         142.1969  144.5112  162.5126 C.3     1  UNL1        0.2398
     13 C         140.9568  144.6464  161.6796 C.3     1  UNL1        0.2184
     14 C         139.8126  145.4843  162.1684 C.3     1  UNL1        0.2082
     15 O         138.4072  144.9716  162.0589 O.3     1  UNL1       -0.2383
     16 S         137.9569  143.8281  162.9190 S.3     1  UNL1       -0.0001
     17 O         138.2509  144.6366  164.1478 O.2     1  UNL1       -0.3452
     18 O         137.6628  143.0197  161.6902 O.2     1  UNL1       -0.3452
     19 O         137.5066  142.6847  163.7790 O.co2   1  UNL1       -0.2682
     20 O         140.8608  143.9438  160.3578 O.3     1  UNL1       -0.2371
     21 S         140.4914  144.7133  159.1244 S.3     1  UNL1       -0.0000
     22 O         139.2380  143.9001  158.9924 O.2     1  UNL1       -0.3452
     23 O         141.7449  145.5266  159.2564 O.2     1  UNL1       -0.3452
     24 O         140.1220  145.4829  157.8910 O.co2   1  UNL1       -0.2682
     25 O         138.9870  140.2665  166.8634 O.3     1  UNL1       -0.4752
     26 C         139.4437  139.9898  168.2651 C.3     1  UNL1        0.2055
     27 C         140.9065  139.8390  168.5613 C.3     1  UNL1        0.0500
     28 C         141.3717  139.6727  169.9776 C.3     1  UNL1        0.0384
     29 C         141.9367  140.8447  170.7239 C.3     1  UNL1        0.1726
     30 O         141.5607  142.2407  170.3237 O.3     1  UNL1       -0.2412
     31 S         140.2794  142.8434  170.8185 S.3     1  UNL1       -0.0001
     32 O         140.0769  143.5054  169.4878 O.2     1  UNL1       -0.3452
     33 O         140.4818  142.1814  172.1491 O.2     1  UNL1       -0.3452
     34 O         138.9980  143.4461  171.3133 O.co2   1  UNL1       -0.2682
@<TRIPOS>UNITY_ATOM_ATTR
19 1
charge -1
24 1
charge -1
34 1
charge -1
@<TRIPOS>BOND
     1     9    10    1
     2    10     7    1
     3     7     8    2
     4     7     1    1
     5     1     2   ar
     6     2     3   ar
     7     3    11    1
     8    11    12    1
     9    13    12    1
    10    13    14    1
    11    14    15    1
    12    15    16    1
    13    16    17    2
    14    16    18    2
    15    16    19    1
    16    13    20    1
    17    20    21    1
    18    21    22    2
    19    21    23    2
    20    21    24    1
    21     3     4   ar
    22     4     5   ar
    23     5     6   ar
    24     6    25    1
    25    25    26    1
    26    26    27    1
    27    27    28    1
    28    28    29    1
    29    29    30    1
    30    30    31    1
    31    31    32    2
    32    31    33    2
    33    31    34    1
    34     6     1   ar
@<TRIPOS>MOLECULE
*****
 34 34 0 0 0
SMALL
GASTEIGER

@<TRIPOS>ATOM
      1 C         140.7019  140.9593  166.7460 C.ar    1  UNL1        0.1125
      2 C         140.1180  142.1155  165.9895 C.ar    1  UNL1        0.0464
      3 C         141.0218  143.1438  165.3765 C.ar    1  UNL1        0.1391
      4 C         142.5094  143.0159  165.5199 C.ar    1  UNL1        0.0400
      5 C         143.0932  141.8597  166.2764 C.ar    1  UNL1        0.0402
      6 C         142.1895  140.8314  166.8894 C.ar    1  UNL1        0.1449
      7 C         139.7981  139.9310  167.3590 C.2     1  UNL1        0.3444
      8 O         138.9594  139.0506  166.4808 O.2     1  UNL1       -0.2448
      9 C         139.5731  140.9963  169.7179 C.3     1  UNL1        0.2560
     10 O         139.7330  139.7832  168.8503 O.3     1  UNL1       -0.4413
     11 O         140.4379  144.3001  164.6200 O.3     1  UNL1       -0.4727
     12 C         141.3160  145.1427  163.7430 C.3     1  UNL1        0.2398
     13 C         141.2473  144.9973  162.2517 C.3     1  UNL1        0.2184
     14 C         139.9536  145.2421  161.5330 C.3     1  UNL1        0.2082
     15 O         139.1054  144.0833  161.0998 O.3     1  UNL1       -0.2383
     16 S         138.2796  143.3401  162.1076 S.3     1  UNL1       -0.0001
     17 O         137.7041  144.6375  162.5929 O.2     1  UNL1       -0.3452
     18 O         138.8552  142.0426  161.6224 O.2     1  UNL1       -0.3452
     19 O         137.4539  142.5968  163.1155 O.co2   1  UNL1       -0.2682
     20 O         142.4723  144.6070  161.4790 O.3     1  UNL1       -0.2371
     21 S         143.3229  143.4643  161.9486 S.3     1  UNL1       -0.0000
     22 O         142.2395  142.5003  161.5651 O.2     1  UNL1       -0.3452
     23 O         144.4062  144.4282  162.3321 O.2     1  UNL1       -0.3452
     24 O         144.1734  142.3215  162.4183 O.co2   1  UNL1       -0.2682
     25 O         142.7734  139.6752  167.6459 O.3     1  UNL1       -0.4752
     26 C         143.2969  138.4812  166.9041 C.3     1  UNL1        0.2055
     27 C         143.0834  138.3650  165.4239 C.3     1  UNL1        0.0500
     28 C         141.8171  137.7601  164.8941 C.3     1  UNL1        0.0384
     29 C         141.3403  138.1067  163.5149 C.3     1  UNL1        0.1726
     30 O         140.1345  138.9809  163.3358 O.3     1  UNL1       -0.2412
     31 S         138.9559  138.4819  162.5536 S.3     1  UNL1       -0.0001
     32 O         138.0475  139.3600  163.3622 O.2     1  UNL1       -0.3452
     33 O         139.8642  137.6038  161.7451 O.2     1  UNL1       -0.3452
     34 O         137.7773  137.9829  161.7714 O.co2   1  UNL1       -0.2682
@<TRIPOS>UNITY_ATOM_ATTR
19 1
charge -1
24 1
charge -1
34 1
charge -1
@<TRIPOS>BOND
     1     9    10    1
     2    10     7    1
     3     7     8    2
     4     7     1    1
     5     1     2   ar
     6     2     3   ar
     7     3    11    1
     8    11    12    1
     9    13    12    1
    10    13    14    1
    11    14    15    1
    12    15    16    1
    13    16    17    2
    14    16    18    2
    15    16    19    1
    16    13    20    1
    17    20    21    1
    18    21    22    2
    19    21    23    2
    20    21    24    1
    21     3     4   ar
    22     4     5   ar
    23     5     6   ar
    24     6    25    1
    25    25    26    1
    26    26    27    1
    27    27    28    1
    28    28    29    1
    29    29    30    1
    30    30    31    1
    31    31    32    2
    32    31    33    2
    33    31    34    1
    34     6     1   ar
@<TRIPOS>MOLECULE
*****
 34 34 0 0 0
SMALL
GASTEIGER

@<TRIPOS>ATOM
      1 C         138.4921  139.8986  165.6469 C.ar    1  UNL1        0.1125
      2 C         137.7554  140.5386  164.5078 C.ar    1  UNL1        0.0464
      3 C         138.0177  141.9732  164.1566 C.ar    1  UNL1        0.1391
      4 C         139.0166  142.7677  164.9445 C.ar    1  UNL1        0.0400
      5 C         139.7532  142.1276  166.0837 C.ar    1  UNL1        0.0402
      6 C         139.4909  140.6931  166.4349 C.ar    1  UNL1        0.1449
      7 C         138.2298  138.4641  165.9981 C.2     1  UNL1        0.3444
      8 O         137.3717  138.1264  167.1811 O.2     1  UNL1       -0.2448
      9 C         140.2317  137.4904  164.6587 C.3     1  UNL1        0.2560
     10 O         138.8256  137.3673  165.1663 O.3     1  UNL1       -0.4413
     11 O         137.2810  142.6132  163.0173 O.3     1  UNL1       -0.4727
     12 C         137.9828  142.8601  161.7148 C.3     1  UNL1        0.2398
     13 C         139.2671  142.1485  161.4081 C.3     1  UNL1        0.2184
     14 C         140.5801  142.8269  161.6647 C.3     1  UNL1        0.2082
     15 O         140.9364  144.0781  160.9180 O.3     1  UNL1       -0.2383
     16 S         140.3725  145.3980  161.3540 S.3     1  UNL1       -0.0001
     17 O         140.9063  145.1692  162.7370 O.2     1  UNL1       -0.3452
     18 O         139.8386  145.6267  159.9710 O.2     1  UNL1       -0.3452
     19 O         139.8086  146.7178  161.7900 O.co2   1  UNL1       -0.2682
     20 O         139.2384  140.7585  160.8448 O.3     1  UNL1       -0.2371
     21 S         138.3115  140.4269  159.7132 S.3     1  UNL1       -0.0000
     22 O         137.4590  139.6208  160.6477 O.2     1  UNL1       -0.3452
     23 O         139.1640  141.2330  158.7786 O.2     1  UNL1       -0.3452
     24 O         137.3846  140.0952  158.5815 O.co2   1  UNL1       -0.2682
     25 O         140.2276  140.0531  167.5741 O.3     1  UNL1       -0.4752
     26 C         141.6400  139.5847  167.3852 C.3     1  UNL1        0.2055
     27 C         142.7578  140.2532  168.1295 C.3     1  UNL1        0.0500
     28 C         143.0045  141.7220  167.9514 C.3     1  UNL1        0.0384
     29 C         142.4903  142.6976  168.9681 C.3     1  UNL1        0.1726
     30 O         141.0606  142.6293  169.4170 O.3     1  UNL1       -0.2412
     31 S         140.7384  142.3371  170.8525 S.3     1  UNL1       -0.0001
     32 O         142.1106  142.7917  171.2530 O.2     1  UNL1       -0.3452
     33 O         139.3662  141.8824  170.4521 O.2     1  UNL1       -0.3452
     34 O         140.4162  142.0449  172.2881 O.co2   1  UNL1       -0.2682
@<TRIPOS>UNITY_ATOM_ATTR
19 1
charge -1
24 1
charge -1
34 1
charge -1
@<TRIPOS>BOND
     1     9    10    1
     2    10     7    1
     3     7     8    2
     4     7     1    1
     5     1     2   ar
     6     2     3   ar
     7     3    11    1
     8    11    12    1
     9    13    12    1
    10    13    14    1
    11    14    15    1
    12    15    16    1
    13    16    17    2
    14    16    18    2
    15    16    19    1
    16    13    20    1
    17    20    21    1
    18    21    22    2
    19    21    23    2
    20    21    24    1
    21     3     4   ar
    22     4     5   ar
    23     5     6   ar
    24     6    25    1
    25    25    26    1
    26    26    27    1
    27    27    28    1
    28    28    29    1
    29    29    30    1
    30    30    31    1
    31    31    32    2
    32    31    33    2
    33    31    34    1
    34     6     1   ar
@<TRIPOS>MOLECULE
*****
 34 34 0 0 0
SMALL
GASTEIGER

@<TRIPOS>ATOM
      1 C         140.1076  140.8626  166.5095 C.ar    1  UNL1        0.1125
      2 C         139.6614  142.2090  166.0215 C.ar    1  UNL1        0.0464
      3 C         140.6583  143.1599  165.4282 C.ar    1  UNL1        0.1391
      4 C         142.1014  142.7645  165.3229 C.ar    1  UNL1        0.0400
      5 C         142.5476  141.4181  165.8109 C.ar    1  UNL1        0.0402
      6 C         141.5507  140.4672  166.4042 C.ar    1  UNL1        0.1449
      7 C         139.1107  139.9117  167.1028 C.2     1  UNL1        0.3444
      8 O         139.0785  139.6875  168.5855 O.2     1  UNL1       -0.2448
      9 C         138.5196  137.8542  165.6307 C.3     1  UNL1        0.2560
     10 O         138.1460  139.1850  166.2133 O.3     1  UNL1       -0.4413
     11 O         140.2120  144.5063  164.9402 O.3     1  UNL1       -0.4727
     12 C         140.8146  145.0911  163.6972 C.3     1  UNL1        0.2398
     13 C         140.0443  145.0730  162.4102 C.3     1  UNL1        0.2184
     14 C         138.7786  144.2750  162.3048 C.3     1  UNL1        0.2082
     15 O         138.7855  142.9463  161.6087 O.3     1  UNL1       -0.2383
     16 S         138.6727  141.6811  162.4065 S.3     1  UNL1       -0.0001
     17 O         140.1671  141.5528  162.4144 O.2     1  UNL1       -0.3452
     18 O         137.1782  141.8093  162.3986 O.2     1  UNL1       -0.3452
     19 O         138.5598  140.4158  163.2043 O.co2   1  UNL1       -0.2682
     20 O         140.5398  145.8530  161.2286 O.3     1  UNL1       -0.2371
     21 S         141.0299  145.1336  160.0071 S.3     1  UNL1       -0.0000
     22 O         139.7990  145.5587  159.2628 O.2     1  UNL1       -0.3452
     23 O         142.2608  144.7085  160.7514 O.2     1  UNL1       -0.3452
     24 O         141.5201  144.4141  158.7856 O.co2   1  UNL1       -0.2682
     25 O         141.9970  139.1208  166.8922 O.3     1  UNL1       -0.4752
     26 C         142.8493  139.0134  168.1218 C.3     1  UNL1        0.2055
     27 C         142.4602  139.7477  169.3706 C.3     1  UNL1        0.0500
     28 C         143.2395  140.9534  169.8054 C.3     1  UNL1        0.0384
     29 C         142.5261  142.2365  170.1129 C.3     1  UNL1        0.1726
     30 O         141.1601  142.4895  169.5469 O.3     1  UNL1       -0.2412
     31 S         140.0616  142.9928  170.4356 S.3     1  UNL1       -0.0001
     32 O         140.0972  141.7073  171.2077 O.2     1  UNL1       -0.3452
     33 O         140.0259  144.2783  169.6635 O.2     1  UNL1       -0.3452
     34 O         138.9630  143.4961  171.3243 O.co2   1  UNL1       -0.2682
@<TRIPOS>UNITY_ATOM_ATTR
19 1
charge -1
24 1
charge -1
34 1
charge -1
@<TRIPOS>BOND
     1     9    10    1
     2    10     7    1
     3     7     8    2
     4     7     1    1
     5     1     2   ar
     6     2     3   ar
     7     3    11    1
     8    11    12    1
     9    13    12    1
    10    13    14    1
    11    14    15    1
    12    15    16    1
    13    16    17    2
    14    16    18    2
    15    16    19    1
    16    13    20    1
    17    20    21    1
    18    21    22    2
    19    21    23    2
    20    21    24    1
    21     3     4   ar
    22     4     5   ar
    23     5     6   ar
    24     6    25    1
    25    25    26    1
    26    26    27    1
    27    27    28    1
    28    28    29    1
    29    29    30    1
    30    30    31    1
    31    31    32    2
    32    31    33    2
    33    31    34    1
    34     6     1   ar
@<TRIPOS>MOLECULE
*****
 34 34 0 0 0
SMALL
GASTEIGER

@<TRIPOS>ATOM
      1 C         141.8865  139.3945  162.6041 C.ar    1  UNL1        0.1125
      2 C         142.5985  139.8220  163.8532 C.ar    1  UNL1        0.0464
      3 C         142.5959  138.9314  165.0602 C.ar    1  UNL1        0.1391
      4 C         141.8812  137.6133  165.0181 C.ar    1  UNL1        0.0400
      5 C         141.1692  137.1858  163.7690 C.ar    1  UNL1        0.0402
      6 C         141.1718  138.0764  162.5621 C.ar    1  UNL1        0.1449
      7 C         141.8891  140.2851  161.3971 C.2     1  UNL1        0.3444
      8 O         141.0752  141.5450  161.3929 O.2     1  UNL1       -0.2448
      9 C         144.0097  139.1945  160.3658 C.3     1  UNL1        0.2560
     10 O         142.7057  139.9158  160.1944 O.3     1  UNL1       -0.4413
     11 O         143.3080  139.3590  166.3093 O.3     1  UNL1       -0.4727
     12 C         142.5514  139.4838  167.5985 C.3     1  UNL1        0.2398
     13 C         142.6739  140.7313  168.4222 C.3     1  UNL1        0.2184
     14 C         142.7155  140.6408  169.9189 C.3     1  UNL1        0.2082
     15 O         141.4483  140.4282  170.6930 O.3     1  UNL1       -0.2383
     16 S         140.6142  141.6052  171.1039 S.3     1  UNL1       -0.0001
     17 O         141.8232  142.2484  171.7159 O.2     1  UNL1       -0.3452
     18 O         139.4051  140.9620  170.4919 O.2     1  UNL1       -0.3452
     19 O         139.7800  142.7822  171.5149 O.co2   1  UNL1       -0.2682
     20 O         142.7548  142.0695  167.7493 O.3     1  UNL1       -0.2371
     21 S         141.8031  142.4105  166.6412 S.3     1  UNL1       -0.0000
     22 O         142.9620  142.6468  165.7186 O.2     1  UNL1       -0.3452
     23 O         140.6442  142.1742  167.5637 O.2     1  UNL1       -0.3452
     24 O         140.8514  142.7515  165.5330 O.co2   1  UNL1       -0.2682
     25 O         140.4597  137.6488  161.3129 O.3     1  UNL1       -0.4752
     26 C         139.0722  138.1453  161.0333 C.3     1  UNL1        0.2055
     27 C         138.1092  138.3566  162.1638 C.3     1  UNL1        0.0500
     28 C         138.0481  139.6844  162.8588 C.3     1  UNL1        0.0384
     29 C         137.6214  140.9076  162.1029 C.3     1  UNL1        0.1726
     30 O         137.0361  142.0772  162.8375 O.3     1  UNL1       -0.2412
     31 S         137.8421  143.3293  163.0176 S.3     1  UNL1       -0.0001
     32 O         137.7132  143.1981  164.5063 O.2     1  UNL1       -0.3452
     33 O         137.9710  143.4605  161.5290 O.2     1  UNL1       -0.3452
     34 O         138.6482  144.5814  163.1978 O.co2   1  UNL1       -0.2682
@<TRIPOS>UNITY_ATOM_ATTR
19 1
charge -1
24 1
charge -1
34 1
charge -1
@<TRIPOS>BOND
     1     9    10    1
     2    10     7    1
     3     7     8    2
     4     7     1    1
     5     1     2   ar
     6     2     3   ar
     7     3    11    1
     8    11    12    1
     9    13    12    1
    10    13    14    1
    11    14    15    1
    12    15    16    1
    13    16    17    2
    14    16    18    2
    15    16    19    1
    16    13    20    1
    17    20    21    1
    18    21    22    2
    19    21    23    2
    20    21    24    1
    21     3     4   ar
    22     4     5   ar
    23     5     6   ar
    24     6    25    1
    25    25    26    1
    26    26    27    1
    27    27    28    1
    28    28    29    1
    29    29    30    1
    30    30    31    1
    31    31    32    2
    32    31    33    2
    33    31    34    1
    34     6     1   ar
@<TRIPOS>MOLECULE
*****
 34 34 0 0 0
SMALL
GASTEIGER

@<TRIPOS>ATOM
      1 C         138.3045  139.8887  164.7692 C.ar    1  UNL1        0.1125
      2 C         137.9051  141.2772  164.3662 C.ar    1  UNL1        0.0464
      3 C         137.7824  141.6305  162.9136 C.ar    1  UNL1        0.1391
      4 C         138.0589  140.5953  161.8640 C.ar    1  UNL1        0.0400
      5 C         138.4583  139.2068  162.2670 C.ar    1  UNL1        0.0402
      6 C         138.5810  138.8535  163.7196 C.ar    1  UNL1        0.1449
      7 C         138.4272  139.5354  166.2219 C.2     1  UNL1        0.3444
      8 O         137.4229  138.6214  166.8589 O.2     1  UNL1       -0.2448
      9 C         139.4998  140.0337  168.5351 C.3     1  UNL1        0.2560
     10 O         139.5543  140.0961  167.0374 O.3     1  UNL1       -0.4413
     11 O         137.3830  143.0191  162.5106 O.3     1  UNL1       -0.4727
     12 C         138.2912  144.1760  162.8054 C.3     1  UNL1        0.2398
     13 C         139.6508  144.2417  162.1752 C.3     1  UNL1        0.2184
     14 C         140.8420  144.6288  163.0005 C.3     1  UNL1        0.2082
     15 O         142.1398  143.8952  162.8345 O.3     1  UNL1       -0.2383
     16 S         143.2505  144.1033  163.8210 S.3     1  UNL1       -0.0001
     17 O         144.0541  144.8068  162.7679 O.2     1  UNL1       -0.3452
     18 O         142.4468  143.3997  164.8742 O.2     1  UNL1       -0.3452
     19 O         144.3611  144.3114  164.8075 O.co2   1  UNL1       -0.2682
     20 O         139.8192  143.9202  160.7197 O.3     1  UNL1       -0.2371
     21 S         140.7063  144.7722  159.8612 S.3     1  UNL1       -0.0000
     22 O         139.7802  145.9355  160.0588 O.2     1  UNL1       -0.3452
     23 O         141.6324  143.6089  159.6636 O.2     1  UNL1       -0.3452
     24 O         141.5934  145.6242  159.0027 O.co2   1  UNL1       -0.2682
     25 O         138.9804  137.4648  164.1226 O.3     1  UNL1       -0.4752
     26 C         140.3795  137.1926  164.5897 C.3     1  UNL1        0.2055
     27 C         141.5098  138.0583  164.1172 C.3     1  UNL1        0.0500
     28 C         142.1026  137.8413  162.7566 C.3     1  UNL1        0.0384
     29 C         143.3888  138.5163  162.3826 C.3     1  UNL1        0.1726
     30 O         144.0902  139.3961  163.3746 O.3     1  UNL1       -0.2412
     31 S         144.8580  140.5951  162.9025 S.3     1  UNL1       -0.0001
     32 O         145.2390  140.9088  164.3190 O.2     1  UNL1       -0.3452
     33 O         144.4771  140.2813  161.4861 O.2     1  UNL1       -0.3452
     34 O         145.6258  141.7940  162.4305 O.co2   1  UNL1       -0.2682
@<TRIPOS>UNITY_ATOM_ATTR
19 1
charge -1
24 1
charge -1
34 1
charge -1
@<TRIPOS>BOND
     1     9    10    1
     2    10     7    1
     3     7     8    2
     4     7     1    1
     5     1     2   ar
     6     2     3   ar
     7     3    11    1
     8    11    12    1
     9    13    12    1
    10    13    14    1
    11    14    15    1
    12    15    16    1
    13    16    17    2
    14    16    18    2
    15    16    19    1
    16    13    20    1
    17    20    21    1
    18    21    22    2
    19    21    23    2
    20    21    24    1
    21     3     4   ar
    22     4     5   ar
    23     5     6   ar
    24     6    25    1
    25    25    26    1
    26    26    27    1
    27    27    28    1
    28    28    29    1
    29    29    30    1
    30    30    31    1
    31    31    32    2
    32    31    33    2
    33    31    34    1
    34     6     1   ar
@<TRIPOS>MOLECULE
*****
 34 34 0 0 0
SMALL
GASTEIGER

@<TRIPOS>ATOM
      1 C         138.9834  141.0854  165.0289 C.ar    1  UNL1        0.1125
      2 C         138.4378  142.2163  164.2084 C.ar    1  UNL1        0.0464
      3 C         139.0634  143.5768  164.2966 C.ar    1  UNL1        0.1391
      4 C         140.2345  143.8063  165.2053 C.ar    1  UNL1        0.0400
      5 C         140.7801  142.6754  166.0258 C.ar    1  UNL1        0.0402
      6 C         140.1545  141.3149  165.9376 C.ar    1  UNL1        0.1449
      7 C         138.3579  139.7249  164.9407 C.2     1  UNL1        0.3444
      8 O         137.6643  139.1395  166.1349 O.2     1  UNL1       -0.2448
      9 C         139.3164  137.7471  163.5552 C.3     1  UNL1        0.2560
     10 O         138.4260  138.9498  163.6583 O.3     1  UNL1       -0.4413
     11 O         138.5177  144.7078  163.4761 O.3     1  UNL1       -0.4727
     12 C         139.4199  145.4624  162.5452 C.3     1  UNL1        0.2398
     13 C         140.1261  144.7406  161.4360 C.3     1  UNL1        0.2184
     14 C         141.5884  144.4287  161.5556 C.3     1  UNL1        0.2082
     15 O         142.0347  143.1905  162.2752 O.3     1  UNL1       -0.2383
     16 S         143.3821  143.1501  162.9333 S.3     1  UNL1       -0.0001
     17 O         143.0857  141.7756  163.4557 O.2     1  UNL1       -0.3452
     18 O         143.6785  144.5246  162.4109 O.2     1  UNL1       -0.3452
     19 O         144.7294  143.1097  163.5914 O.co2   1  UNL1       -0.2682
     20 O         139.3699  144.3306  160.2071 O.3     1  UNL1       -0.2371
     21 S         139.1355  142.8770  159.9207 S.3     1  UNL1       -0.0000
     22 O         140.3243  142.8655  159.0061 O.2     1  UNL1       -0.3452
     23 O         137.9467  142.8885  160.8354 O.2     1  UNL1       -0.3452
     24 O         138.9011  141.4234  159.6344 O.co2   1  UNL1       -0.2682
     25 O         140.7002  140.1839  166.7581 O.3     1  UNL1       -0.4752
     26 C         140.4905  140.1655  168.2433 C.3     1  UNL1        0.2055
     27 C         141.5850  139.6847  169.1494 C.3     1  UNL1        0.0500
     28 C         142.7272  140.5939  169.4937 C.3     1  UNL1        0.0384
     29 C         142.5392  141.6834  170.5074 C.3     1  UNL1        0.1726
     30 O         141.7495  142.9088  170.1539 O.3     1  UNL1       -0.2412
     31 S         140.3414  143.0618  170.6476 S.3     1  UNL1       -0.0001
     32 O         140.6514  142.1656  171.8097 O.2     1  UNL1       -0.3452
     33 O         140.0315  143.9581  169.4854 O.2     1  UNL1       -0.3452
     34 O         138.9333  143.2149  171.1412 O.co2   1  UNL1       -0.2682
@<TRIPOS>UNITY_ATOM_ATTR
19 1
charge -1
24 1
charge -1
34 1
charge -1
@<TRIPOS>BOND
     1     9    10    1
     2    10     7    1
     3     7     8    2
     4     7     1    1
     5     1     2   ar
     6     2     3   ar
     7     3    11    1
     8    11    12    1
     9    13    12    1
    10    13    14    1
    11    14    15    1
    12    15    16    1
    13    16    17    2
    14    16    18    2
    15    16    19    1
    16    13    20    1
    17    20    21    1
    18    21    22    2
    19    21    23    2
    20    21    24    1
    21     3     4   ar
    22     4     5   ar
    23     5     6   ar
    24     6    25    1
    25    25    26    1
    26    26    27    1
    27    27    28    1
    28    28    29    1
    29    29    30    1
    30    30    31    1
    31    31    32    2
    32    31    33    2
    33    31    34    1
    34     6     1   ar
@<TRIPOS>MOLECULE
*****
 34 34 0 0 0
SMALL
GASTEIGER

@<TRIPOS>ATOM
      1 C         143.9537  140.8127  164.1898 C.ar    1  UNL1        0.1125
      2 C         143.6002  141.1656  165.6041 C.ar    1  UNL1        0.0464
      3 C         142.9166  140.1581  166.4801 C.ar    1  UNL1        0.1391
      4 C         142.5865  138.7975  165.9419 C.ar    1  UNL1        0.0400
      5 C         142.9400  138.4445  164.5275 C.ar    1  UNL1        0.0402
      6 C         143.6236  139.4521  163.6515 C.ar    1  UNL1        0.1449
      7 C         144.6373  141.8202  163.3137 C.2     1  UNL1        0.3444
      8 O         146.0856  141.6490  162.9627 O.2     1  UNL1       -0.2448
      9 C         143.9016  144.3025  163.5305 C.3     1  UNL1        0.2560
     10 O         143.8727  142.9991  162.7887 O.3     1  UNL1       -0.4413
     11 O         142.5631  140.5111  167.8946 O.3     1  UNL1       -0.4727
     12 C         141.1306  140.7427  168.2741 C.3     1  UNL1        0.2398
     13 C         140.4840  142.0661  167.9904 C.3     1  UNL1        0.2184
     14 C         140.0847  142.4207  166.5887 C.3     1  UNL1        0.2082
     15 O         139.8526  143.8548  166.2150 O.3     1  UNL1       -0.2383
     16 S         138.9599  144.1932  165.0581 S.3     1  UNL1       -0.0001
     17 O         138.3648  145.3215  165.8473 O.2     1  UNL1       -0.3452
     18 O         139.5549  143.0650  164.2688 O.2     1  UNL1       -0.3452
     19 O         138.0672  144.5317  163.9011 O.co2   1  UNL1       -0.2682
     20 O         140.2368  143.0351  169.1085 O.3     1  UNL1       -0.2371
     21 S         140.4307  142.6033  170.5318 S.3     1  UNL1       -0.0000
     22 O         141.7929  143.2312  170.5367 O.2     1  UNL1       -0.3452
     23 O         139.0685  141.9754  170.5270 O.2     1  UNL1       -0.3452
     24 O         140.6247  142.1715  171.9552 O.co2   1  UNL1       -0.2682
     25 O         143.9771  139.0990  162.2371 O.3     1  UNL1       -0.4752
     26 C         142.9958  139.3565  161.1322 C.3     1  UNL1        0.2055
     27 C         141.5275  139.4191  161.4325 C.3     1  UNL1        0.0500
     28 C         140.7021  138.1670  161.4042 C.3     1  UNL1        0.0384
     29 C         139.2443  138.2217  161.7530 C.3     1  UNL1        0.1726
     30 O         138.7638  137.6602  163.0584 O.3     1  UNL1       -0.2412
     31 S         138.8915  138.4690  164.3151 S.3     1  UNL1       -0.0001
     32 O         139.5026  137.2896  165.0120 O.2     1  UNL1       -0.3452
     33 O         138.2804  139.6483  163.6182 O.2     1  UNL1       -0.3452
     34 O         139.0192  139.2778  165.5719 O.co2   1  UNL1       -0.2682
@<TRIPOS>UNITY_ATOM_ATTR
19 1
charge -1
24 1
charge -1
34 1
charge -1
@<TRIPOS>BOND
     1     9    10    1
     2    10     7    1
     3     7     8    2
     4     7     1    1
     5     1     2   ar
     6     2     3   ar
     7     3    11    1
     8    11    12    1
     9    13    12    1
    10    13    14    1
    11    14    15    1
    12    15    16    1
    13    16    17    2
    14    16    18    2
    15    16    19    1
    16    13    20    1
    17    20    21    1
    18    21    22    2
    19    21    23    2
    20    21    24    1
    21     3     4   ar
    22     4     5   ar
    23     5     6   ar
    24     6    25    1
    25    25    26    1
    26    26    27    1
    27    27    28    1
    28    28    29    1
    29    29    30    1
    30    30    31    1
    31    31    32    2
    32    31    33    2
    33    31    34    1
    34     6     1   ar
