@<TRIPOS>MOLECULE
*****
 29 32 0 0 0
SMALL
GASTEIGER

@<TRIPOS>ATOM
      1 C         140.0014  139.2276  163.1103 C.ar    1  UNL1       -0.0003
      2 C         138.8147  139.5099  162.2373 C.ar    1  UNL1        0.0001
      3 C         138.8980  139.2721  160.7587 C.ar    1  UNL1        0.0042
      4 C         140.1678  138.7520  160.1530 C.ar    1  UNL1        0.0497
      5 C         141.3545  138.4697  161.0259 C.ar    1  UNL1       -0.0161
      6 C         141.2713  138.7075  162.5046 C.ar    1  UNL1       -0.0041
      7 C         142.6244  137.9496  160.4202 C.3     1  UNL1        0.0480
      8 C         142.7076  137.7119  158.9416 C.3     1  UNL1        0.0984
      9 N         141.5209  137.9942  158.0685 N.am    1  UNL1       -0.2743
     10 C         140.2510  138.5142  158.6742 C.2     1  UNL1        0.2488
     11 O         139.0644  138.7965  157.8013 O.2     1  UNL1       -0.2699
     12 C         139.7518  139.9409  167.5464 C.ar    1  UNL1        0.0534
     13 C         138.6069  139.2934  166.8254 C.ar    1  UNL1        0.0045
     14 C         138.6901  139.0557  165.3466 C.ar    1  UNL1        0.0001
     15 C         139.9182  139.4654  164.5890 C.ar    1  UNL1       -0.0000
     16 C         141.0631  140.1128  165.3101 C.ar    1  UNL1        0.0001
     17 C         140.9799  140.3506  166.7888 C.ar    1  UNL1        0.0045
     18 C         140.7504  141.0170  171.2336 C.3     1  UNL1        0.1109
     19 N         140.8335  140.7792  169.7548 N.am    1  UNL1       -0.2992
     20 C         139.6687  140.1787  169.0251 C.2     1  UNL1        0.2459
     21 O         138.4207  139.8160  169.7741 O.2     1  UNL1       -0.2701
     22 H         141.6526  141.0172  169.2632 H       1  UNL1        0.1498
     23 C         141.6042  137.7564  156.5899 C.3     1  UNL1        0.1110
     24 C         142.6825  136.8759  156.0313 C.3     1  UNL1        0.0939
     25 N         142.5381  135.3840  156.0902 N.3     1  UNL1       -0.2712
     26 C         141.5726  134.5595  155.2913 C.3     1  UNL1        0.0722
     27 C         141.7716  133.1206  155.6656 C.3     1  UNL1        0.0188
     28 C         142.8601  133.0559  156.6957 C.3     1  UNL1        0.0188
     29 C         143.3337  134.4547  156.9581 C.3     1  UNL1        0.0722
@<TRIPOS>BOND
     1    18    19    1
     2    19    20   am
     3    20    21    2
     4    20    12    1
     5    12    13   ar
     6    13    14   ar
     7    14    15   ar
     8    15     1    1
     9     1     2   ar
    10     2     3   ar
    11     3     4   ar
    12     4     5   ar
    13     5     6   ar
    14     5     7    1
    15     7     8    1
    16     8     9    1
    17     9    23    1
    18    23    24    1
    19    24    25    1
    20    25    26    1
    21    26    27    1
    22    27    28    1
    23    28    29    1
    24     9    10   am
    25    10    11    2
    26    15    16   ar
    27    16    17   ar
    28    17    12   ar
    29     6     1   ar
    30    29    25    1
    31    10     4    1
    32    19    22    1
@<TRIPOS>MOLECULE
*****
 29 32 0 0 0
SMALL
GASTEIGER

@<TRIPOS>ATOM
      1 C         139.4009  140.0869  163.5378 C.ar    1  UNL1       -0.0003
      2 C         138.3105  140.0843  164.5678 C.ar    1  UNL1        0.0001
      3 C         138.6516  139.9320  166.0205 C.ar    1  UNL1        0.0042
      4 C         140.0830  139.7825  166.4432 C.ar    1  UNL1        0.0497
      5 C         141.1734  139.7851  165.4132 C.ar    1  UNL1       -0.0161
      6 C         140.8324  139.9374  163.9605 C.ar    1  UNL1       -0.0041
      7 C         142.6048  139.6356  165.8359 C.3     1  UNL1        0.0480
      8 C         142.9458  139.4833  167.2887 C.3     1  UNL1        0.0984
      9 N         141.8554  139.4807  168.3188 N.am    1  UNL1       -0.2743
     10 C         140.4240  139.6302  167.8961 C.2     1  UNL1        0.2488
     11 O         139.3336  139.6276  168.9261 O.2     1  UNL1       -0.2699
     12 C         138.3780  140.5437  159.1794 C.ar    1  UNL1        0.0534
     13 C         137.3872  139.9268  160.1216 C.ar    1  UNL1        0.0045
     14 C         137.7282  139.7746  161.5745 C.ar    1  UNL1        0.0001
     15 C         139.0599  140.2392  162.0850 C.ar    1  UNL1       -0.0000
     16 C         140.0507  140.8560  161.1427 C.ar    1  UNL1        0.0001
     17 C         139.7098  141.0083  159.6899 C.ar    1  UNL1        0.0045
     18 C         137.0775  142.1216  155.7781 C.3     1  UNL1        0.1109
     19 N         137.4185  141.9693  157.2309 N.am    1  UNL1       -0.2992
     20 C         138.0371  140.6959  157.7266 C.2     1  UNL1        0.2459
     21 O         138.3148  139.5748  156.7696 O.2     1  UNL1       -0.2701
     22 H         137.2362  142.7051  157.8591 H       1  UNL1        0.1498
     23 C         142.1964  139.3284  169.7715 C.3     1  UNL1        0.1110
     24 C         142.4963  140.5406  170.6026 C.3     1  UNL1        0.0939
     25 N         141.6176  141.7525  170.5056 N.3     1  UNL1       -0.2712
     26 C         140.2478  141.8981  171.0995 C.3     1  UNL1        0.0722
     27 C         139.7380  143.2671  170.7587 C.3     1  UNL1        0.0188
     28 C         140.7928  143.9675  169.9543 C.3     1  UNL1        0.0188
     29 C         141.9544  143.0314  169.7979 C.3     1  UNL1        0.0722
@<TRIPOS>BOND
     1    18    19    1
     2    19    20   am
     3    20    21    2
     4    20    12    1
     5    12    13   ar
     6    13    14   ar
     7    14    15   ar
     8    15     1    1
     9     1     2   ar
    10     2     3   ar
    11     3     4   ar
    12     4     5   ar
    13     5     6   ar
    14     5     7    1
    15     7     8    1
    16     8     9    1
    17     9    23    1
    18    23    24    1
    19    24    25    1
    20    25    26    1
    21    26    27    1
    22    27    28    1
    23    28    29    1
    24     9    10   am
    25    10    11    2
    26    15    16   ar
    27    16    17   ar
    28    17    12   ar
    29     6     1   ar
    30    29    25    1
    31    10     4    1
    32    19    22    1
@<TRIPOS>MOLECULE
*****
 29 32 0 0 0
SMALL
GASTEIGER

@<TRIPOS>ATOM
      1 C         143.3387  139.9409  163.0193 C.ar    1  UNL1       -0.0003
      2 C         143.0669  138.7052  162.2136 C.ar    1  UNL1        0.0001
      3 C         143.2491  138.7253  160.7249 C.ar    1  UNL1        0.0042
      4 C         143.7032  139.9812  160.0418 C.ar    1  UNL1        0.0497
      5 C         143.9750  141.2169  160.8475 C.ar    1  UNL1       -0.0161
      6 C         143.7928  141.1967  162.3362 C.ar    1  UNL1       -0.0041
      7 C         144.4291  142.4728  160.1644 C.3     1  UNL1        0.0480
      8 C         144.6113  142.4930  158.6757 C.3     1  UNL1        0.0984
      9 N         144.3395  141.2572  157.8699 N.am    1  UNL1       -0.2743
     10 C         143.8854  140.0014  158.5530 C.2     1  UNL1        0.2488
     11 O         143.6136  138.7657  157.7474 O.2     1  UNL1       -0.2699
     12 C         142.7920  139.8805  167.4856 C.ar    1  UNL1        0.0534
     13 C         143.1096  138.6115  166.7517 C.ar    1  UNL1        0.0045
     14 C         143.2919  138.6316  165.2629 C.ar    1  UNL1        0.0001
     15 C         143.1565  139.9207  164.5081 C.ar    1  UNL1       -0.0000
     16 C         142.8389  141.1898  165.2420 C.ar    1  UNL1        0.0001
     17 C         142.6566  141.1697  166.7307 C.ar    1  UNL1        0.0045
     18 C         141.8328  141.0269  171.1619 C.3     1  UNL1        0.1109
     19 N         142.0151  141.0470  169.6731 N.am    1  UNL1       -0.2992
     20 C         142.6098  139.8604  168.9743 C.2     1  UNL1        0.2459
     21 O         143.0222  138.6538  169.7642 O.2     1  UNL1       -0.2701
     22 H         141.7444  141.8389  169.1547 H       1  UNL1        0.1498
     23 C         144.5218  141.2774  156.3812 C.3     1  UNL1        0.1110
     24 C         145.2744  142.4013  155.7329 C.3     1  UNL1        0.0939
     25 N         146.6892  142.1935  155.2798 N.3     1  UNL1       -0.2712
     26 C         147.9030  142.1720  156.1610 C.3     1  UNL1        0.0722
     27 C         149.1026  141.9358  155.2918 C.3     1  UNL1        0.0188
     28 C         148.6301  141.8114  153.8736 C.3     1  UNL1        0.0188
     29 C         147.1386  141.9706  153.8662 C.3     1  UNL1        0.0722
@<TRIPOS>BOND
     1    18    19    1
     2    19    20   am
     3    20    21    2
     4    20    12    1
     5    12    13   ar
     6    13    14   ar
     7    14    15   ar
     8    15     1    1
     9     1     2   ar
    10     2     3   ar
    11     3     4   ar
    12     4     5   ar
    13     5     6   ar
    14     5     7    1
    15     7     8    1
    16     8     9    1
    17     9    23    1
    18    23    24    1
    19    24    25    1
    20    25    26    1
    21    26    27    1
    22    27    28    1
    23    28    29    1
    24     9    10   am
    25    10    11    2
    26    15    16   ar
    27    16    17   ar
    28    17    12   ar
    29     6     1   ar
    30    29    25    1
    31    10     4    1
    32    19    22    1
@<TRIPOS>MOLECULE
*****
 29 32 0 0 0
SMALL
GASTEIGER

@<TRIPOS>ATOM
      1 C         142.3721  139.1017  163.1077 C.ar    1  UNL1       -0.0003
      2 C         143.6569  139.1737  162.3369 C.ar    1  UNL1        0.0001
      3 C         143.6451  139.0264  160.8442 C.ar    1  UNL1        0.0042
      4 C         142.3486  138.8071  160.1224 C.ar    1  UNL1        0.0497
      5 C         141.0639  138.7351  160.8932 C.ar    1  UNL1       -0.0161
      6 C         141.0756  138.8824  162.3859 C.ar    1  UNL1       -0.0041
      7 C         139.7674  138.5158  160.1714 C.3     1  UNL1        0.0480
      8 C         139.7557  138.3685  158.6787 C.3     1  UNL1        0.0984
      9 N         141.0405  138.4405  157.9078 N.am    1  UNL1       -0.2743
     10 C         142.3370  138.6598  158.6296 C.2     1  UNL1        0.2488
     11 O         143.6217  138.7318  157.8588 O.2     1  UNL1       -0.2699
     12 C         142.4072  139.5436  167.5859 C.ar    1  UNL1        0.0534
     13 C         143.3702  138.6080  166.9171 C.ar    1  UNL1        0.0045
     14 C         143.3585  138.4607  165.4243 C.ar    1  UNL1        0.0001
     15 C         142.3838  139.2490  164.6005 C.ar    1  UNL1       -0.0000
     16 C         141.4208  140.1845  165.2694 C.ar    1  UNL1        0.0001
     17 C         141.4325  140.3318  166.7620 C.ar    1  UNL1        0.0045
     18 C         141.8173  141.0489  171.2103 C.3     1  UNL1        0.1109
     19 N         141.8057  140.9016  169.7175 N.am    1  UNL1       -0.2992
     20 C         142.4188  139.6909  169.0786 C.2     1  UNL1        0.2459
     21 O         143.0436  138.6275  169.9323 O.2     1  UNL1       -0.2701
     22 H         141.3956  141.5995  169.1572 H       1  UNL1        0.1498
     23 C         141.0287  138.2933  156.4151 C.3     1  UNL1        0.1110
     24 C         140.6174  136.9918  155.7931 C.3     1  UNL1        0.0939
     25 N         141.6246  135.8948  155.6136 N.3     1  UNL1       -0.2712
     26 C         142.7287  135.5470  156.5676 C.3     1  UNL1        0.0722
     27 C         143.4911  134.3902  155.9923 C.3     1  UNL1        0.0188
     28 C         142.8580  134.0232  154.6828 C.3     1  UNL1        0.0188
     29 C         141.7045  134.9531  154.4488 C.3     1  UNL1        0.0722
@<TRIPOS>BOND
     1    18    19    1
     2    19    20   am
     3    20    21    2
     4    20    12    1
     5    12    13   ar
     6    13    14   ar
     7    14    15   ar
     8    15     1    1
     9     1     2   ar
    10     2     3   ar
    11     3     4   ar
    12     4     5   ar
    13     5     6   ar
    14     5     7    1
    15     7     8    1
    16     8     9    1
    17     9    23    1
    18    23    24    1
    19    24    25    1
    20    25    26    1
    21    26    27    1
    22    27    28    1
    23    28    29    1
    24     9    10   am
    25    10    11    2
    26    15    16   ar
    27    16    17   ar
    28    17    12   ar
    29     6     1   ar
    30    29    25    1
    31    10     4    1
    32    19    22    1
@<TRIPOS>MOLECULE
*****
 29 32 0 0 0
SMALL
GASTEIGER

@<TRIPOS>ATOM
      1 C         138.9129  140.8404  163.4627 C.ar    1  UNL1       -0.0003
      2 C         138.1527  139.7494  162.7685 C.ar    1  UNL1        0.0001
      3 C         137.8980  139.8348  161.2928 C.ar    1  UNL1        0.0042
      4 C         138.4034  141.0112  160.5113 C.ar    1  UNL1        0.0497
      5 C         139.1636  142.1021  161.2055 C.ar    1  UNL1       -0.0161
      6 C         139.4183  142.0167  162.6812 C.ar    1  UNL1       -0.0041
      7 C         139.6690  143.2785  160.4240 C.3     1  UNL1        0.0480
      8 C         139.4143  143.3639  158.9483 C.3     1  UNL1        0.0984
      9 N         138.6541  142.2729  158.2540 N.am    1  UNL1       -0.2743
     10 C         138.1487  141.0966  159.0355 C.2     1  UNL1        0.2488
     11 O         137.3885  140.0056  158.3413 O.2     1  UNL1       -0.2699
     12 C         139.6771  140.5842  167.8900 C.ar    1  UNL1        0.0534
     13 C         140.2582  141.7141  167.0928 C.ar    1  UNL1        0.0045
     14 C         140.0034  141.7995  165.6170 C.ar    1  UNL1        0.0001
     15 C         139.1676  140.7550  164.9385 C.ar    1  UNL1       -0.0000
     16 C         138.5865  139.6251  165.7358 C.ar    1  UNL1        0.0001
     17 C         138.8412  139.5397  167.2115 C.ar    1  UNL1        0.0045
     18 C         141.4965  140.8791  171.4046 C.3     1  UNL1        0.1109
     19 N         141.2417  140.9645  169.9289 N.am    1  UNL1       -0.2992
     20 C         139.9318  140.4988  169.3657 C.2     1  UNL1        0.2459
     21 O         138.8766  139.9477  170.2783 O.2     1  UNL1       -0.2701
     22 H         141.9343  141.3261  169.3299 H       1  UNL1        0.1498
     23 C         138.3994  142.3583  156.7783 C.3     1  UNL1        0.1110
     24 C         137.0318  142.7100  156.2724 C.3     1  UNL1        0.0939
     25 N         136.2491  141.7124  155.4710 N.3     1  UNL1       -0.2712
     26 C         136.5061  141.3324  154.0428 C.3     1  UNL1        0.0722
     27 C         135.4879  140.3047  153.6462 C.3     1  UNL1        0.0188
     28 C         134.6016  140.0497  154.8293 C.3     1  UNL1        0.0188
     29 C         135.0721  140.9196  155.9570 C.3     1  UNL1        0.0722
@<TRIPOS>BOND
     1    18    19    1
     2    19    20   am
     3    20    21    2
     4    20    12    1
     5    12    13   ar
     6    13    14   ar
     7    14    15   ar
     8    15     1    1
     9     1     2   ar
    10     2     3   ar
    11     3     4   ar
    12     4     5   ar
    13     5     6   ar
    14     5     7    1
    15     7     8    1
    16     8     9    1
    17     9    23    1
    18    23    24    1
    19    24    25    1
    20    25    26    1
    21    26    27    1
    22    27    28    1
    23    28    29    1
    24     9    10   am
    25    10    11    2
    26    15    16   ar
    27    16    17   ar
    28    17    12   ar
    29     6     1   ar
    30    29    25    1
    31    10     4    1
    32    19    22    1
@<TRIPOS>MOLECULE
*****
 29 32 0 0 0
SMALL
GASTEIGER

@<TRIPOS>ATOM
      1 C         139.1449  139.6726  166.1143 C.ar    1  UNL1       -0.0003
      2 C         139.8903  138.6136  165.3573 C.ar    1  UNL1        0.0001
      3 C         140.5934  138.9604  164.0785 C.ar    1  UNL1        0.0042
      4 C         140.5511  140.3661  163.5567 C.ar    1  UNL1        0.0497
      5 C         139.8058  141.4250  164.3137 C.ar    1  UNL1       -0.0161
      6 C         139.1027  141.0783  165.5925 C.ar    1  UNL1       -0.0041
      7 C         139.7635  142.8307  163.7919 C.3     1  UNL1        0.0480
      8 C         140.4666  143.1774  162.5131 C.3     1  UNL1        0.0984
      9 N         141.2120  142.1185  161.7560 N.am    1  UNL1       -0.2743
     10 C         141.2543  140.7128  162.2778 C.2     1  UNL1        0.2488
     11 O         141.9996  139.6539  161.5208 O.2     1  UNL1       -0.2699
     12 C         137.0355  138.6324  169.9509 C.ar    1  UNL1        0.0534
     13 C         136.6363  137.9618  168.6699 C.ar    1  UNL1        0.0045
     14 C         137.3395  138.3086  167.3910 C.ar    1  UNL1        0.0001
     15 C         138.4418  139.3258  167.3932 C.ar    1  UNL1       -0.0000
     16 C         138.8410  139.9964  168.6741 C.ar    1  UNL1        0.0001
     17 C         138.1379  139.6498  169.9530 C.ar    1  UNL1        0.0045
     18 C         135.8148  136.5831  173.1226 C.3     1  UNL1        0.1109
     19 N         136.5179  136.9298  171.8437 N.am    1  UNL1       -0.2992
     20 C         136.3325  138.2858  171.2297 C.2     1  UNL1        0.2459
     21 O         135.4440  139.2950  171.8945 O.2     1  UNL1       -0.2701
     22 H         137.1010  136.2674  171.4073 H       1  UNL1        0.1498
     23 C         141.9151  142.4652  160.4772 C.3     1  UNL1        0.1110
     24 C         143.3670  142.8416  160.4978 C.3     1  UNL1        0.0939
     25 N         144.1746  142.6468  161.7467 N.3     1  UNL1       -0.2712
     26 C         144.3139  143.6321  162.8692 C.3     1  UNL1        0.0722
     27 C         145.2101  143.0268  163.9087 C.3     1  UNL1        0.0188
     28 C         145.6247  141.6675  163.4286 C.3     1  UNL1        0.0188
     29 C         144.9847  141.4327  162.0924 C.3     1  UNL1        0.0722
@<TRIPOS>BOND
     1    18    19    1
     2    19    20   am
     3    20    21    2
     4    20    12    1
     5    12    13   ar
     6    13    14   ar
     7    14    15   ar
     8    15     1    1
     9     1     2   ar
    10     2     3   ar
    11     3     4   ar
    12     4     5   ar
    13     5     6   ar
    14     5     7    1
    15     7     8    1
    16     8     9    1
    17     9    23    1
    18    23    24    1
    19    24    25    1
    20    25    26    1
    21    26    27    1
    22    27    28    1
    23    28    29    1
    24     9    10   am
    25    10    11    2
    26    15    16   ar
    27    16    17   ar
    28    17    12   ar
    29     6     1   ar
    30    29    25    1
    31    10     4    1
    32    19    22    1
@<TRIPOS>MOLECULE
*****
 29 32 0 0 0
SMALL
GASTEIGER

@<TRIPOS>ATOM
      1 C         138.8527  140.8634  163.0985 C.ar    1  UNL1       -0.0003
      2 C         138.0449  139.8286  162.3728 C.ar    1  UNL1        0.0001
      3 C         137.8120  139.9585  160.8967 C.ar    1  UNL1        0.0042
      4 C         138.3868  141.1232  160.1464 C.ar    1  UNL1        0.0497
      5 C         139.1946  142.1580  160.8721 C.ar    1  UNL1       -0.0161
      6 C         139.4275  142.0281  162.3482 C.ar    1  UNL1       -0.0041
      7 C         139.7694  143.3227  160.1218 C.3     1  UNL1        0.0480
      8 C         139.5365  143.4527  158.6457 C.3     1  UNL1        0.0984
      9 N         138.7287  142.4179  157.9199 N.am    1  UNL1       -0.2743
     10 C         138.1539  141.2531  158.6703 C.2     1  UNL1        0.2488
     11 O         137.3461  140.2184  157.9445 O.2     1  UNL1       -0.2699
     12 C         139.5515  140.4736  167.5269 C.ar    1  UNL1        0.0534
     13 C         140.1454  141.6260  166.7725 C.ar    1  UNL1        0.0045
     14 C         139.9125  141.7559  165.2963 C.ar    1  UNL1        0.0001
     15 C         139.0856  140.7334  164.5747 C.ar    1  UNL1       -0.0000
     16 C         138.4917  139.5810  165.3291 C.ar    1  UNL1        0.0001
     17 C         138.7247  139.4511  166.8052 C.ar    1  UNL1        0.0045
     18 C         141.2826  140.7414  171.0880 C.3     1  UNL1        0.1109
     19 N         141.0496  140.8714  169.6119 N.am    1  UNL1       -0.2992
     20 C         139.7844  140.3437  169.0030 C.2     1  UNL1        0.2459
     21 O         138.7522  139.6860  169.8701 O.2     1  UNL1       -0.2701
     22 H         141.7271  141.3030  169.0427 H       1  UNL1        0.1498
     23 C         138.4958  142.5478  156.4439 C.3     1  UNL1        0.1110
     24 C         137.9140  143.8123  155.8848 C.3     1  UNL1        0.0939
     25 N         138.8202  144.9161  155.4260 N.3     1  UNL1       -0.2712
     26 C         138.4371  146.3557  155.2504 C.3     1  UNL1        0.0722
     27 C         139.6487  147.1035  154.7782 C.3     1  UNL1        0.0188
     28 C         140.7805  146.1260  154.6619 C.3     1  UNL1        0.0188
     29 C         140.2685  144.7741  155.0623 C.3     1  UNL1        0.0722
@<TRIPOS>BOND
     1    18    19    1
     2    19    20   am
     3    20    21    2
     4    20    12    1
     5    12    13   ar
     6    13    14   ar
     7    14    15   ar
     8    15     1    1
     9     1     2   ar
    10     2     3   ar
    11     3     4   ar
    12     4     5   ar
    13     5     6   ar
    14     5     7    1
    15     7     8    1
    16     8     9    1
    17     9    23    1
    18    23    24    1
    19    24    25    1
    20    25    26    1
    21    26    27    1
    22    27    28    1
    23    28    29    1
    24     9    10   am
    25    10    11    2
    26    15    16   ar
    27    16    17   ar
    28    17    12   ar
    29     6     1   ar
    30    29    25    1
    31    10     4    1
    32    19    22    1
@<TRIPOS>MOLECULE
*****
 29 32 0 0 0
SMALL
GASTEIGER

@<TRIPOS>ATOM
      1 C         141.8518  143.9125  160.9149 C.ar    1  UNL1       -0.0003
      2 C         143.0706  143.0685  161.1427 C.ar    1  UNL1        0.0001
      3 C         143.3248  142.4673  162.4931 C.ar    1  UNL1        0.0042
      4 C         142.3601  142.7100  163.6158 C.ar    1  UNL1        0.0497
      5 C         141.1412  143.5540  163.3880 C.ar    1  UNL1       -0.0161
      6 C         140.8870  144.1553  162.0375 C.ar    1  UNL1       -0.0041
      7 C         140.1765  143.7967  164.5107 C.3     1  UNL1        0.0480
      8 C         140.4306  143.1954  165.8612 C.3     1  UNL1        0.0984
      9 N         141.6496  142.3514  166.0890 N.am    1  UNL1       -0.2743
     10 C         142.6143  142.1087  164.9663 C.2     1  UNL1        0.2488
     11 O         143.8332  141.2647  165.1942 O.2     1  UNL1       -0.2699
     12 C         141.0891  145.7165  156.8634 C.ar    1  UNL1        0.0534
     13 C         142.2465  144.7835  157.0631 C.ar    1  UNL1        0.0045
     14 C         142.5007  144.1821  158.4136 C.ar    1  UNL1        0.0001
     15 C         141.5976  144.5139  159.5643 C.ar    1  UNL1       -0.0000
     16 C         140.4402  145.4469  159.3646 C.ar    1  UNL1        0.0001
     17 C         140.1859  146.0482  158.0142 C.ar    1  UNL1        0.0045
     18 C         139.9183  148.2604  154.0513 C.3     1  UNL1        0.1109
     19 N         140.1725  147.6591  155.4018 N.am    1  UNL1       -0.2992
     20 C         140.8349  146.3178  155.5129 C.2     1  UNL1        0.2459
     21 O         141.2429  145.5779  154.2736 O.2     1  UNL1       -0.2701
     22 H         139.9047  148.1447  156.2153 H       1  UNL1        0.1498
     23 C         141.9037  141.7501  167.4395 C.3     1  UNL1        0.1110
     24 C         141.5540  140.3148  167.6993 C.3     1  UNL1        0.0939
     25 N         140.3777  139.6923  167.0072 N.3     1  UNL1       -0.2712
     26 C         140.3955  139.0310  165.6609 C.3     1  UNL1        0.0722
     27 C         139.0059  138.5518  165.3616 C.3     1  UNL1        0.0188
     28 C         138.1294  138.9170  166.5228 C.3     1  UNL1        0.0188
     29 C         138.9773  139.6219  167.5399 C.3     1  UNL1        0.0722
@<TRIPOS>BOND
     1    18    19    1
     2    19    20   am
     3    20    21    2
     4    20    12    1
     5    12    13   ar
     6    13    14   ar
     7    14    15   ar
     8    15     1    1
     9     1     2   ar
    10     2     3   ar
    11     3     4   ar
    12     4     5   ar
    13     5     6   ar
    14     5     7    1
    15     7     8    1
    16     8     9    1
    17     9    23    1
    18    23    24    1
    19    24    25    1
    20    25    26    1
    21    26    27    1
    22    27    28    1
    23    28    29    1
    24     9    10   am
    25    10    11    2
    26    15    16   ar
    27    16    17   ar
    28    17    12   ar
    29     6     1   ar
    30    29    25    1
    31    10     4    1
    32    19    22    1
@<TRIPOS>MOLECULE
*****
 29 32 0 0 0
SMALL
GASTEIGER

@<TRIPOS>ATOM
      1 C         142.0939  138.7371  163.0543 C.ar    1  UNL1       -0.0003
      2 C         143.2768  138.1730  162.3245 C.ar    1  UNL1        0.0001
      3 C         143.2118  137.9620  160.8409 C.ar    1  UNL1        0.0042
      4 C         141.9640  138.3150  160.0871 C.ar    1  UNL1        0.0497
      5 C         140.7811  138.8790  160.8168 C.ar    1  UNL1       -0.0161
      6 C         140.8461  139.0901  162.3005 C.ar    1  UNL1       -0.0041
      7 C         139.5333  139.2320  160.0630 C.3     1  UNL1        0.0480
      8 C         139.4683  139.0210  158.5793 C.3     1  UNL1        0.0984
      9 N         140.6513  138.4569  157.8495 N.am    1  UNL1       -0.2743
     10 C         141.8991  138.1039  158.6034 C.2     1  UNL1        0.2488
     11 O         143.0820  137.5398  157.8736 O.2     1  UNL1       -0.2699
     12 C         142.2887  139.3703  167.5054 C.ar    1  UNL1        0.0534
     13 C         141.1095  139.8739  166.7271 C.ar    1  UNL1        0.0045
     14 C         141.0446  139.6628  165.2434 C.ar    1  UNL1        0.0001
     15 C         142.1588  138.9482  164.5380 C.ar    1  UNL1       -0.0000
     16 C         143.3381  138.4445  165.3163 C.ar    1  UNL1        0.0001
     17 C         143.4030  138.6556  166.7999 C.ar    1  UNL1        0.0045
     18 C         141.8544  141.0437  171.0776 C.3     1  UNL1        0.1109
     19 N         141.7895  140.8326  169.5939 N.am    1  UNL1       -0.2992
     20 C         142.3537  139.5813  168.9890 C.2     1  UNL1        0.2459
     21 O         142.9828  138.5411  169.8677 O.2     1  UNL1       -0.2701
     22 H         141.3766  141.5153  169.0172 H       1  UNL1        0.1498
     23 C         140.5863  138.2459  156.3659 C.3     1  UNL1        0.1110
     24 C         139.9014  137.0325  155.8102 C.3     1  UNL1        0.0939
     25 N         139.0140  137.1572  154.6072 N.3     1  UNL1       -0.2712
     26 C         137.6502  137.7812  154.5786 C.3     1  UNL1        0.0722
     27 C         137.1279  137.6894  153.1754 C.3     1  UNL1        0.0188
     28 C         138.1690  137.0087  152.3369 C.3     1  UNL1        0.0188
     29 C         139.3346  136.6798  153.2218 C.3     1  UNL1        0.0722
@<TRIPOS>BOND
     1    18    19    1
     2    19    20   am
     3    20    21    2
     4    20    12    1
     5    12    13   ar
     6    13    14   ar
     7    14    15   ar
     8    15     1    1
     9     1     2   ar
    10     2     3   ar
    11     3     4   ar
    12     4     5   ar
    13     5     6   ar
    14     5     7    1
    15     7     8    1
    16     8     9    1
    17     9    23    1
    18    23    24    1
    19    24    25    1
    20    25    26    1
    21    26    27    1
    22    27    28    1
    23    28    29    1
    24     9    10   am
    25    10    11    2
    26    15    16   ar
    27    16    17   ar
    28    17    12   ar
    29     6     1   ar
    30    29    25    1
    31    10     4    1
    32    19    22    1
