@<TRIPOS>MOLECULE
*****
 19 20 0 0 0
SMALL
GASTEIGER

@<TRIPOS>ATOM
      1 N         140.5321  139.6427  166.6755 N.3     1  UNL1       -0.2702
      2 C         138.2669  139.7668  165.4091 C.3     1  UNL1        0.0173
      3 C         139.5893  139.0985  165.6436 C.3     1  UNL1        0.0579
      4 C         139.9688  137.8861  164.8461 C.3     1  UNL1        0.0173
      5 C         141.9613  139.1880  166.6998 C.3     1  UNL1        0.0991
      6 C         142.9765  139.8581  165.8220 C.ar    1  UNL1       -0.0053
      7 C         143.8504  139.0349  164.9227 C.ar    1  UNL1       -0.0020
      8 C         144.8656  139.7050  164.0450 C.ar    1  UNL1        0.0120
      9 C         145.0069  141.1982  164.0667 C.ar    1  UNL1        0.0682
     10 CL        146.0222  141.8682  163.1889 Cl      1  UNL1       -0.0814
     11 C         144.1331  142.0213  164.9660 C.ar    1  UNL1        0.0679
     12 CL        144.2744  143.5144  164.9876 Cl      1  UNL1       -0.0814
     13 C         143.1179  141.3512  165.8437 C.ar    1  UNL1        0.0093
     14 C         140.0457  140.6417  167.6833 C.3     1  UNL1        0.0750
     15 C         139.9158  140.2500  169.1254 C.3     1  UNL1        0.0474
     16 C         140.8630  139.7632  170.1817 C.3     1  UNL1        0.0713
     17 N         139.7321  139.6959  171.1648 N.3     1  UNL1       -0.2973
     18 C         138.7849  140.1827  170.1085 C.3     1  UNL1        0.0713
     19 H         139.8320  140.3290  171.9583 H       1  UNL1        0.1233
@<TRIPOS>BOND
     1     2     3    1
     2     3     4    1
     3     3     1    1
     4     1     5    1
     5     5     6    1
     6     6     7   ar
     7     7     8   ar
     8     8     9   ar
     9     9    10    1
    10     9    11   ar
    11    11    12    1
    12    11    13   ar
    13     1    14    1
    14    14    15    1
    15    15    16    1
    16    16    17    1
    17    17    18    1
    18    13     6   ar
    19    18    15    1
    20    17    19    1
@<TRIPOS>MOLECULE
*****
 19 20 0 0 0
SMALL
GASTEIGER

@<TRIPOS>ATOM
      1 N         140.0748  140.2321  167.5582 N.3     1  UNL1       -0.2702
      2 C         138.1137  139.0373  166.3430 C.3     1  UNL1        0.0173
      3 C         139.5749  139.3612  166.4439 C.3     1  UNL1        0.0579
      4 C         140.5361  138.8141  165.4306 C.3     1  UNL1        0.0173
      5 C         141.2982  141.0768  167.3587 C.3     1  UNL1        0.0991
      6 C         141.2992  142.1630  166.3242 C.ar    1  UNL1       -0.0053
      7 C         142.5318  142.4218  165.5096 C.ar    1  UNL1       -0.0020
      8 C         142.5328  143.5079  164.4751 C.ar    1  UNL1        0.0120
      9 C         141.3011  144.3353  164.2552 C.ar    1  UNL1        0.0682
     10 CL        141.3020  145.4215  163.2206 Cl      1  UNL1       -0.0814
     11 C         140.0684  144.0765  165.0698 C.ar    1  UNL1        0.0679
     12 CL        138.8367  144.9039  164.8498 Cl      1  UNL1       -0.0814
     13 C         140.0675  142.9903  166.1043 C.ar    1  UNL1        0.0093
     14 C         139.3513  140.2583  168.8719 C.3     1  UNL1        0.0750
     15 C         139.8978  141.0638  170.0132 C.3     1  UNL1        0.0474
     16 C         140.8269  140.7869  171.1577 C.3     1  UNL1        0.0713
     17 N         140.6706  142.2029  171.6272 N.3     1  UNL1       -0.2973
     18 C         139.7415  142.4799  170.4826 C.3     1  UNL1        0.0713
     19 H         141.5332  142.7468  171.6043 H       1  UNL1        0.1233
@<TRIPOS>BOND
     1     2     3    1
     2     3     4    1
     3     3     1    1
     4     1     5    1
     5     5     6    1
     6     6     7   ar
     7     7     8   ar
     8     8     9   ar
     9     9    10    1
    10     9    11   ar
    11    11    12    1
    12    11    13   ar
    13     1    14    1
    14    14    15    1
    15    15    16    1
    16    16    17    1
    17    17    18    1
    18    13     6   ar
    19    18    15    1
    20    17    19    1
@<TRIPOS>MOLECULE
*****
 19 20 0 0 0
SMALL
GASTEIGER

@<TRIPOS>ATOM
      1 N         140.6383  140.8488  167.4672 N.3     1  UNL1       -0.2702
      2 C         140.3613  143.1231  166.2421 C.3     1  UNL1        0.0173
      3 C         140.4895  142.3406  167.5155 C.3     1  UNL1        0.0579
      4 C         140.4690  143.0499  168.8369 C.3     1  UNL1        0.0173
      5 C         139.4377  139.9828  167.2250 C.3     1  UNL1        0.0991
      6 C         139.0769  139.5749  165.8273 C.ar    1  UNL1       -0.0053
      7 C         139.4013  138.1932  165.3419 C.ar    1  UNL1       -0.0020
      8 C         139.0405  137.7853  163.9443 C.ar    1  UNL1        0.0120
      9 C         138.3553  138.7591  163.0320 C.ar    1  UNL1        0.0682
     10 CL        137.9945  138.3511  161.6343 Cl      1  UNL1       -0.0814
     11 C         138.0309  140.1408  163.5174 C.ar    1  UNL1        0.0679
     12 CL        137.3458  141.1146  162.6051 Cl      1  UNL1       -0.0814
     13 C         138.3917  140.5487  164.9150 C.ar    1  UNL1        0.0093
     14 C         141.9876  140.2229  167.6613 C.3     1  UNL1        0.0750
     15 C         142.5250  140.0132  169.0459 C.3     1  UNL1        0.0474
     16 C         142.5987  138.8499  169.9901 C.3     1  UNL1        0.0713
     17 N         143.2849  139.7165  171.0041 N.3     1  UNL1       -0.2973
     18 C         143.2111  140.8797  170.0599 C.3     1  UNL1        0.0713
     19 H         144.2353  139.4220  171.2286 H       1  UNL1        0.1233
@<TRIPOS>BOND
     1     2     3    1
     2     3     4    1
     3     3     1    1
     4     1     5    1
     5     5     6    1
     6     6     7   ar
     7     7     8   ar
     8     8     9   ar
     9     9    10    1
    10     9    11   ar
    11    11    12    1
    12    11    13   ar
    13     1    14    1
    14    14    15    1
    15    15    16    1
    16    16    17    1
    17    17    18    1
    18    13     6   ar
    19    18    15    1
    20    17    19    1
@<TRIPOS>MOLECULE
*****
 19 20 0 0 0
SMALL
GASTEIGER

@<TRIPOS>ATOM
      1 N         140.6898  140.8579  167.6079 N.3     1  UNL1       -0.2702
      2 C         142.7210  141.6688  166.2055 C.3     1  UNL1        0.0173
      3 C         142.0375  140.5977  167.0028 C.3     1  UNL1        0.0579
      4 C         142.7016  139.2666  167.1951 C.3     1  UNL1        0.0173
      5 C         139.5555  139.9115  167.3477 C.3     1  UNL1        0.0991
      6 C         139.1289  139.6213  165.9392 C.ar    1  UNL1       -0.0053
      7 C         139.4241  138.2844  165.3264 C.ar    1  UNL1       -0.0020
      8 C         138.9974  137.9942  163.9180 C.ar    1  UNL1        0.0120
      9 C         138.2755  139.0410  163.1223 C.ar    1  UNL1        0.0682
     10 CL        137.8488  138.7508  161.7138 Cl      1  UNL1       -0.0814
     11 C         137.9803  140.3779  163.7350 C.ar    1  UNL1        0.0679
     12 CL        137.2584  141.4247  162.9393 Cl      1  UNL1       -0.0814
     13 C         138.4070  140.6680  165.1435 C.ar    1  UNL1        0.0093
     14 C         140.4763  142.0645  168.4731 C.3     1  UNL1        0.0750
     15 C         141.1416  142.1527  169.8145 C.3     1  UNL1        0.0474
     16 C         142.3152  142.9044  170.3691 C.3     1  UNL1        0.0713
     17 N         142.0825  142.2774  171.7117 N.3     1  UNL1       -0.2973
     18 C         140.9089  141.5256  171.1572 C.3     1  UNL1        0.0713
     19 H         141.8414  142.9430  172.4460 H       1  UNL1        0.1233
@<TRIPOS>BOND
     1     2     3    1
     2     3     4    1
     3     3     1    1
     4     1     5    1
     5     5     6    1
     6     6     7   ar
     7     7     8   ar
     8     8     9   ar
     9     9    10    1
    10     9    11   ar
    11    11    12    1
    12    11    13   ar
    13     1    14    1
    14    14    15    1
    15    15    16    1
    16    16    17    1
    17    17    18    1
    18    13     6   ar
    19    18    15    1
    20    17    19    1
@<TRIPOS>MOLECULE
*****
 19 20 0 0 0
SMALL
GASTEIGER

@<TRIPOS>ATOM
      1 N         140.8788  142.8644  164.2603 N.3     1  UNL1       -0.2702
      2 C         139.3774  144.9084  164.8244 C.3     1  UNL1        0.0173
      3 C         140.6580  144.3480  164.2802 C.3     1  UNL1        0.0579
      4 C         141.7177  145.2710  163.7559 C.3     1  UNL1        0.0173
      5 C         141.6498  142.2060  165.3657 C.3     1  UNL1        0.0991
      6 C         140.9346  141.7132  166.5887 C.ar    1  UNL1       -0.0053
      7 C         140.2676  140.3698  166.5773 C.ar    1  UNL1       -0.0020
      8 C         139.5525  139.8771  167.8003 C.ar    1  UNL1        0.0120
      9 C         139.5044  140.7279  169.0348 C.ar    1  UNL1        0.0682
     10 CL        138.7892  140.2351  170.2578 Cl      1  UNL1       -0.0814
     11 C         140.1713  142.0713  169.0462 C.ar    1  UNL1        0.0679
     12 CL        140.1232  142.9221  170.2806 Cl      1  UNL1       -0.0814
     13 C         140.8865  142.5640  167.8232 C.ar    1  UNL1        0.0093
     14 C         140.3285  142.0393  163.1349 C.3     1  UNL1        0.0750
     15 C         138.8673  141.7026  163.0965 C.3     1  UNL1        0.0474
     16 C         137.6250  142.4189  162.6566 C.3     1  UNL1        0.0713
     17 N         136.8008  141.2264  163.0423 N.3     1  UNL1       -0.2973
     18 C         138.0432  140.5101  163.4822 C.3     1  UNL1        0.0713
     19 H         136.3191  140.7826  162.2604 H       1  UNL1        0.1233
@<TRIPOS>BOND
     1     2     3    1
     2     3     4    1
     3     3     1    1
     4     1     5    1
     5     5     6    1
     6     6     7   ar
     7     7     8   ar
     8     8     9   ar
     9     9    10    1
    10     9    11   ar
    11    11    12    1
    12    11    13   ar
    13     1    14    1
    14    14    15    1
    15    15    16    1
    16    16    17    1
    17    17    18    1
    18    13     6   ar
    19    18    15    1
    20    17    19    1
@<TRIPOS>MOLECULE
*****
 19 20 0 0 0
SMALL
GASTEIGER

@<TRIPOS>ATOM
      1 N         140.7103  139.4787  164.7767 N.3     1  UNL1       -0.2702
      2 C         138.8699  137.6984  165.2169 C.3     1  UNL1        0.0173
      3 C         140.1624  138.0979  164.5687 C.3     1  UNL1        0.0579
      4 C         140.9068  137.1167  163.7126 C.3     1  UNL1        0.0173
      5 C         141.6325  139.7541  165.9272 C.3     1  UNL1        0.0991
      6 C         141.1451  140.5413  167.1074 C.ar    1  UNL1       -0.0053
      7 C         141.7385  141.8854  167.4093 C.ar    1  UNL1       -0.0020
      8 C         141.2510  142.6724  168.5895 C.ar    1  UNL1        0.0120
      9 C         140.1701  142.1154  169.4677 C.ar    1  UNL1        0.0682
     10 CL        139.6826  142.9025  170.6479 Cl      1  UNL1       -0.0814
     11 C         139.5766  140.7713  169.1658 C.ar    1  UNL1        0.0679
     12 CL        138.4957  140.2143  170.0440 Cl      1  UNL1       -0.0814
     13 C         140.0641  139.9842  167.9856 C.ar    1  UNL1        0.0093
     14 C         140.3360  140.5840  163.8342 C.3     1  UNL1        0.0750
     15 C         138.8911  140.8989  163.5837 C.3     1  UNL1        0.0474
     16 C         137.8685  140.4594  162.5781 C.3     1  UNL1        0.0713
     17 N         136.8475  141.3444  163.2295 N.3     1  UNL1       -0.2973
     18 C         137.8700  141.7839  164.2352 C.3     1  UNL1        0.0713
     19 H         136.0568  140.8414  163.6322 H       1  UNL1        0.1233
@<TRIPOS>BOND
     1     2     3    1
     2     3     4    1
     3     3     1    1
     4     1     5    1
     5     5     6    1
     6     6     7   ar
     7     7     8   ar
     8     8     9   ar
     9     9    10    1
    10     9    11   ar
    11    11    12    1
    12    11    13   ar
    13     1    14    1
    14    14    15    1
    15    15    16    1
    16    16    17    1
    17    17    18    1
    18    13     6   ar
    19    18    15    1
    20    17    19    1
@<TRIPOS>MOLECULE
*****
 19 20 0 0 0
SMALL
GASTEIGER

@<TRIPOS>ATOM
      1 N         140.2599  143.9313  164.5671 N.3     1  UNL1       -0.2702
      2 C         138.2374  145.0505  165.7531 C.3     1  UNL1        0.0173
      3 C         138.7806  144.0341  164.7930 C.3     1  UNL1        0.0579
      4 C         137.8445  143.1206  164.0587 C.3     1  UNL1        0.0173
      5 C         141.0227  142.7614  165.1143 C.3     1  UNL1        0.0991
      6 C         140.5809  142.1088  166.3907 C.ar    1  UNL1       -0.0053
      7 C         140.0109  140.7216  166.3655 C.ar    1  UNL1       -0.0020
      8 C         139.5691  140.0690  167.6417 C.ar    1  UNL1        0.0120
      9 C         139.6974  140.8036  168.9432 C.ar    1  UNL1        0.0682
     10 CL        139.2556  140.1510  170.2196 Cl      1  UNL1       -0.0814
     11 C         140.2674  142.1908  168.9684 C.ar    1  UNL1        0.0679
     12 CL        140.3957  142.9254  170.2699 Cl      1  UNL1       -0.0814
     13 C         140.7092  142.8434  167.6921 C.ar    1  UNL1        0.0093
     14 C         140.9765  144.9985  163.7939 C.3     1  UNL1        0.0750
     15 C         142.3326  144.7228  163.2151 C.3     1  UNL1        0.0474
     16 C         143.7430  145.0251  163.6267 C.3     1  UNL1        0.0713
     17 N         144.2504  144.3329  162.3965 N.3     1  UNL1       -0.2973
     18 C         142.8400  144.0306  161.9849 C.3     1  UNL1        0.0713
     19 H         144.8150  143.5052  162.5874 H       1  UNL1        0.1233
@<TRIPOS>BOND
     1     2     3    1
     2     3     4    1
     3     3     1    1
     4     1     5    1
     5     5     6    1
     6     6     7   ar
     7     7     8   ar
     8     8     9   ar
     9     9    10    1
    10     9    11   ar
    11    11    12    1
    12    11    13   ar
    13     1    14    1
    14    14    15    1
    15    15    16    1
    16    16    17    1
    17    17    18    1
    18    13     6   ar
    19    18    15    1
    20    17    19    1
@<TRIPOS>MOLECULE
*****
 19 20 0 0 0
SMALL
GASTEIGER

@<TRIPOS>ATOM
      1 N         140.1132  140.7416  167.3875 N.3     1  UNL1       -0.2702
      2 C         140.8749  139.1174  165.5082 C.3     1  UNL1        0.0173
      3 C         139.7910  139.9002  166.1882 C.3     1  UNL1        0.0579
      4 C         138.3850  139.8416  165.6690 C.3     1  UNL1        0.0173
      5 C         141.0267  141.9234  167.2511 C.3     1  UNL1        0.0991
      6 C         140.8731  142.8600  166.0895 C.ar    1  UNL1       -0.0053
      7 C         139.5861  143.6046  165.8916 C.ar    1  UNL1       -0.0020
      8 C         139.4325  144.5411  164.7300 C.ar    1  UNL1        0.0120
      9 C         140.5659  144.7331  163.7664 C.ar    1  UNL1        0.0682
     10 CL        140.4122  145.6697  162.6048 Cl      1  UNL1       -0.0814
     11 C         141.8529  143.9886  163.9643 C.ar    1  UNL1        0.0679
     12 CL        142.9863  144.1805  163.0007 Cl      1  UNL1       -0.0814
     13 C         142.0065  143.0520  165.1259 C.ar    1  UNL1        0.0093
     14 C         139.5217  140.4011  168.7233 C.3     1  UNL1        0.0750
     15 C         139.9721  141.1344  169.9519 C.3     1  UNL1        0.0474
     16 C         139.7309  142.5020  170.5190 C.3     1  UNL1        0.0713
     17 N         140.6090  142.1715  171.6894 N.3     1  UNL1       -0.2973
     18 C         140.8501  140.8039  171.1223 C.3     1  UNL1        0.0713
     19 H         140.1240  142.1706  172.5867 H       1  UNL1        0.1233
@<TRIPOS>BOND
     1     2     3    1
     2     3     4    1
     3     3     1    1
     4     1     5    1
     5     5     6    1
     6     6     7   ar
     7     7     8   ar
     8     8     9   ar
     9     9    10    1
    10     9    11   ar
    11    11    12    1
    12    11    13   ar
    13     1    14    1
    14    14    15    1
    15    15    16    1
    16    16    17    1
    17    17    18    1
    18    13     6   ar
    19    18    15    1
    20    17    19    1
@<TRIPOS>MOLECULE
*****
 19 20 0 0 0
SMALL
GASTEIGER

@<TRIPOS>ATOM
      1 N         140.3289  140.2966  167.9768 N.3     1  UNL1       -0.2702
      2 C         138.6339  140.2452  169.9452 C.3     1  UNL1        0.0173
      3 C         139.6653  140.9762  169.1377 C.3     1  UNL1        0.0579
      4 C         140.0331  142.3868  169.4912 C.3     1  UNL1        0.0173
      5 C         139.5095  139.8418  166.8056 C.3     1  UNL1        0.0991
      6 C         139.0810  140.8296  165.7612 C.ar    1  UNL1       -0.0053
      7 C         138.0880  140.4276  164.7113 C.ar    1  UNL1       -0.0020
      8 C         137.6596  141.4154  163.6670 C.ar    1  UNL1        0.0120
      9 C         138.2241  142.8051  163.6726 C.ar    1  UNL1        0.0682
     10 CL        137.7956  143.7929  162.6282 Cl      1  UNL1       -0.0814
     11 C         139.2171  143.2070  164.7225 C.ar    1  UNL1        0.0679
     12 CL        139.7817  144.5967  164.7281 Cl      1  UNL1       -0.0814
     13 C         139.6456  142.2193  165.7668 C.ar    1  UNL1        0.0093
     14 C         141.8120  140.0717  167.9871 C.3     1  UNL1        0.0750
     15 C         142.5253  139.8328  169.2848 C.3     1  UNL1        0.0474
     16 C         143.2572  140.6978  170.2677 C.3     1  UNL1        0.0713
     17 N         143.5342  139.4950  171.1200 N.3     1  UNL1       -0.2973
     18 C         142.8023  138.6300  170.1371 C.3     1  UNL1        0.0713
     19 H         143.1037  139.5313  172.0440 H       1  UNL1        0.1233
@<TRIPOS>BOND
     1     2     3    1
     2     3     4    1
     3     3     1    1
     4     1     5    1
     5     5     6    1
     6     6     7   ar
     7     7     8   ar
     8     8     9   ar
     9     9    10    1
    10     9    11   ar
    11    11    12    1
    12    11    13   ar
    13     1    14    1
    14    14    15    1
    15    15    16    1
    16    16    17    1
    17    17    18    1
    18    13     6   ar
    19    18    15    1
    20    17    19    1
