@<TRIPOS>MOLECULE
*****
 28 31 0 0 0
SMALL
GASTEIGER

@<TRIPOS>ATOM
      1 O         141.0661  136.4852  163.2113 O.2     1  UNL1       -0.2651
      2 C         140.1962  137.7049  163.1369 C.ar    1  UNL1        0.2820
      3 N         139.2615  137.8900  161.9785 N.ar    1  UNL1       -0.1873
      4 C         138.3916  139.1097  161.9041 C.ar    1  UNL1        0.1819
      5 N         138.4565  140.1444  162.9882 N.ar    1  UNL1       -0.3057
      6 C         139.3912  139.9593  164.1467 C.ar    1  UNL1        0.0662
      7 C         139.4560  140.9940  165.2308 C.ar    1  UNL1        0.0205
      8 C         140.3907  140.8089  166.3892 C.ar    1  UNL1        0.0390
      9 C         141.2606  139.5891  166.4636 C.ar    1  UNL1        0.1455
     10 C         141.1958  138.5545  165.3795 C.ar    1  UNL1        0.0437
     11 C         140.2611  138.7396  164.2211 C.ar    1  UNL1        0.0767
     12 C         137.5866  141.3641  162.9138 C.3     1  UNL1        0.1387
     13 C         138.2004  142.7086  162.6582 C.ar    1  UNL1        0.0555
     14 C         138.9348  142.9663  161.3758 C.ar    1  UNL1        0.1424
     15 F         139.0553  141.8793  160.3492 F       1  UNL1       -0.2043
     16 C         139.5487  144.3108  161.1201 C.ar    1  UNL1        0.0591
     17 C         139.4282  145.3977  162.1468 C.ar    1  UNL1        0.1446
     18 F         140.0420  146.7423  161.8911 F       1  UNL1       -0.2040
     19 C         138.6938  145.1402  163.4291 C.ar    1  UNL1        0.0591
     20 C         138.0799  143.7956  163.6848 C.ar    1  UNL1        0.1424
     21 F         137.3456  143.5381  164.9671 F       1  UNL1       -0.2043
     22 O         142.1953  139.4041  167.6221 O.3     1  UNL1       -0.4535
     23 C         142.1106  140.3190  168.8077 C.ar    1  UNL1        0.1453
     24 C         141.1742  140.0005  169.9354 C.ar    1  UNL1        0.0375
     25 C         141.0895  140.9155  171.1210 C.ar    1  UNL1        0.0031
     26 C         141.9412  142.1489  171.1790 C.ar    1  UNL1        0.0002
     27 C         142.8776  142.4673  170.0513 C.ar    1  UNL1        0.0031
     28 C         142.9624  141.5524  168.8657 C.ar    1  UNL1        0.0375
@<TRIPOS>BOND
     1     1     2    2
     2     2     3   ar
     3     3     4   ar
     4     4     5   ar
     5     5    12    1
     6    12    13    1
     7    13    14   ar
     8    14    15    1
     9    14    16   ar
    10    16    17   ar
    11    17    18    1
    12    17    19   ar
    13    19    20   ar
    14    20    21    1
    15     5     6   ar
    16     6     7   ar
    17     7     8   ar
    18     8     9   ar
    19     9    22    1
    20    22    23    1
    21    23    24   ar
    22    24    25   ar
    23    25    26   ar
    24    26    27   ar
    25    27    28   ar
    26     9    10   ar
    27    10    11   ar
    28    11     2   ar
    29    20    13   ar
    30    11     6   ar
    31    28    23   ar
@<TRIPOS>MOLECULE
*****
 28 31 0 0 0
SMALL
GASTEIGER

@<TRIPOS>ATOM
      1 O         141.0962  136.4752  163.2175 O.2     1  UNL1       -0.2651
      2 C         140.2231  137.6921  163.1343 C.ar    1  UNL1        0.2820
      3 N         139.2753  137.8580  161.9836 N.ar    1  UNL1       -0.1873
      4 C         138.4023  139.0749  161.9004 C.ar    1  UNL1        0.1819
      5 N         138.4770  140.1259  162.9680 N.ar    1  UNL1       -0.3057
      6 C         139.4248  139.9601  164.1188 C.ar    1  UNL1        0.0662
      7 C         139.4995  141.0111  165.1863 C.ar    1  UNL1        0.0205
      8 C         140.4472  140.8452  166.3371 C.ar    1  UNL1        0.0390
      9 C         141.3203  139.6283  166.4202 C.ar    1  UNL1        0.1455
     10 C         141.2456  138.5773  165.3527 C.ar    1  UNL1        0.0437
     11 C         140.2978  138.7432  164.2020 C.ar    1  UNL1        0.0767
     12 C         137.6039  141.3428  162.8848 C.3     1  UNL1        0.1387
     13 C         138.2167  142.6905  162.6437 C.ar    1  UNL1        0.0555
     14 C         138.0633  143.7779  163.6656 C.ar    1  UNL1        0.1424
     15 F         137.2971  143.5175  164.9286 F       1  UNL1       -0.2043
     16 C         138.6762  145.1255  163.4246 C.ar    1  UNL1        0.0591
     17 C         139.4424  145.3859  162.1616 C.ar    1  UNL1        0.1446
     18 F         140.0552  146.7336  161.9205 F       1  UNL1       -0.2040
     19 C         139.5958  144.2987  161.1397 C.ar    1  UNL1        0.0591
     20 C         138.9830  142.9509  161.3808 C.ar    1  UNL1        0.1424
     21 F         139.1364  141.8636  160.3589 F       1  UNL1       -0.2043
     22 O         142.2681  139.4625  167.5710 O.3     1  UNL1       -0.4535
     23 C         142.1360  140.3359  168.7833 C.ar    1  UNL1        0.1453
     24 C         141.1593  139.9768  169.8636 C.ar    1  UNL1        0.0375
     25 C         141.0272  140.8503  171.0759 C.ar    1  UNL1        0.0031
     26 C         141.8718  142.0828  171.2079 C.ar    1  UNL1        0.0002
     27 C         142.8485  142.4419  170.1276 C.ar    1  UNL1        0.0031
     28 C         142.9806  141.5685  168.9153 C.ar    1  UNL1        0.0375
@<TRIPOS>BOND
     1     1     2    2
     2     2     3   ar
     3     3     4   ar
     4     4     5   ar
     5     5    12    1
     6    12    13    1
     7    13    14   ar
     8    14    15    1
     9    14    16   ar
    10    16    17   ar
    11    17    18    1
    12    17    19   ar
    13    19    20   ar
    14    20    21    1
    15     5     6   ar
    16     6     7   ar
    17     7     8   ar
    18     8     9   ar
    19     9    22    1
    20    22    23    1
    21    23    24   ar
    22    24    25   ar
    23    25    26   ar
    24    26    27   ar
    25    27    28   ar
    26     9    10   ar
    27    10    11   ar
    28    11     2   ar
    29    20    13   ar
    30    11     6   ar
    31    28    23   ar
@<TRIPOS>MOLECULE
*****
 28 31 0 0 0
SMALL
GASTEIGER

@<TRIPOS>ATOM
      1 O         137.2420  140.7270  162.1006 O.2     1  UNL1       -0.2651
      2 C         138.0244  141.1050  163.3233 C.ar    1  UNL1        0.2820
      3 N         138.0291  140.2007  164.5200 N.ar    1  UNL1       -0.1873
      4 C         138.8114  140.5787  165.7427 C.ar    1  UNL1        0.1819
      5 N         139.5891  141.8610  165.7687 N.ar    1  UNL1       -0.3057
      6 C         139.5845  142.7654  164.5720 C.ar    1  UNL1        0.0662
      7 C         140.3622  144.0478  164.5980 C.ar    1  UNL1        0.0205
      8 C         140.3576  144.9521  163.4013 C.ar    1  UNL1        0.0390
      9 C         139.5752  144.5740  162.1786 C.ar    1  UNL1        0.1455
     10 C         138.7975  143.2917  162.1526 C.ar    1  UNL1        0.0437
     11 C         138.8022  142.3874  163.3493 C.ar    1  UNL1        0.0767
     12 C         140.3715  142.2391  166.9914 C.3     1  UNL1        0.1387
     13 C         141.0046  141.1733  167.8359 C.ar    1  UNL1        0.0555
     14 C         140.4645  140.8813  169.2045 C.ar    1  UNL1        0.1424
     15 F         139.2912  141.6551  169.7286 F       1  UNL1       -0.2043
     16 C         141.0976  139.8155  170.0490 C.ar    1  UNL1        0.0591
     17 C         142.2709  139.0417  169.5250 C.ar    1  UNL1        0.1446
     18 F         142.9041  137.9759  170.3694 F       1  UNL1       -0.2040
     19 C         142.8111  139.3337  168.1564 C.ar    1  UNL1        0.0591
     20 C         142.1779  140.3995  167.3119 C.ar    1  UNL1        0.1424
     21 F         142.7181  140.6915  165.9433 F       1  UNL1       -0.2043
     22 O         139.5706  145.4784  160.9818 O.3     1  UNL1       -0.4535
     23 C         140.4748  145.1900  159.8203 C.ar    1  UNL1        0.1453
     24 C         140.2810  145.9142  158.5211 C.ar    1  UNL1        0.0375
     25 C         141.1853  145.6257  157.3595 C.ar    1  UNL1        0.0031
     26 C         142.2832  144.6130  157.4972 C.ar    1  UNL1        0.0002
     27 C         142.4769  143.8888  158.7964 C.ar    1  UNL1        0.0031
     28 C         141.5728  144.1772  159.9579 C.ar    1  UNL1        0.0375
@<TRIPOS>BOND
     1     1     2    2
     2     2     3   ar
     3     3     4   ar
     4     4     5   ar
     5     5    12    1
     6    12    13    1
     7    13    14   ar
     8    14    15    1
     9    14    16   ar
    10    16    17   ar
    11    17    18    1
    12    17    19   ar
    13    19    20   ar
    14    20    21    1
    15     5     6   ar
    16     6     7   ar
    17     7     8   ar
    18     8     9   ar
    19     9    22    1
    20    22    23    1
    21    23    24   ar
    22    24    25   ar
    23    25    26   ar
    24    26    27   ar
    25    27    28   ar
    26     9    10   ar
    27    10    11   ar
    28    11     2   ar
    29    20    13   ar
    30    11     6   ar
    31    28    23   ar
@<TRIPOS>MOLECULE
*****
 28 31 0 0 0
SMALL
GASTEIGER

@<TRIPOS>ATOM
      1 O         144.1612  145.1356  162.8265 O.2     1  UNL1       -0.2651
      2 C         143.7939  143.7077  162.5506 C.ar    1  UNL1        0.2820
      3 N         143.6713  143.2246  161.1359 N.ar    1  UNL1       -0.1873
      4 C         143.3039  141.7967  160.8601 C.ar    1  UNL1        0.1819
      5 N         143.0592  140.8518  161.9990 N.ar    1  UNL1       -0.3057
      6 C         143.1818  141.3348  163.4139 C.ar    1  UNL1        0.0662
      7 C         142.9371  140.3900  164.5528 C.ar    1  UNL1        0.0205
      8 C         143.0597  140.8730  165.9676 C.ar    1  UNL1        0.0390
      9 C         143.4271  142.3009  166.2434 C.ar    1  UNL1        0.1455
     10 C         143.6718  143.2458  165.1044 C.ar    1  UNL1        0.0437
     11 C         143.5492  142.7628  163.6897 C.ar    1  UNL1        0.0767
     12 C         142.6919  139.4239  161.7232 C.3     1  UNL1        0.1387
     13 C         141.2499  139.0116  161.6991 C.ar    1  UNL1        0.0555
     14 C         140.7138  138.0957  162.7592 C.ar    1  UNL1        0.1424
     15 F         141.6199  137.5920  163.8434 F       1  UNL1       -0.2043
     16 C         139.2718  137.6834  162.7352 C.ar    1  UNL1        0.0591
     17 C         138.3658  138.1871  161.6510 C.ar    1  UNL1        0.1446
     18 F         136.9238  137.7749  161.6269 F       1  UNL1       -0.2040
     19 C         138.9017  139.1030  160.5910 C.ar    1  UNL1        0.0591
     20 C         140.3438  139.5153  160.6150 C.ar    1  UNL1        0.1424
     21 F         140.8798  140.4313  159.5549 F       1  UNL1       -0.2043
     22 O         143.5497  142.7840  167.6583 O.3     1  UNL1       -0.4535
     23 C         142.6358  142.2427  168.7174 C.ar    1  UNL1        0.1453
     24 C         143.1331  141.2030  169.6774 C.ar    1  UNL1        0.0375
     25 C         142.2191  140.6617  170.7365 C.ar    1  UNL1        0.0031
     26 C         140.8079  141.1603  170.8357 C.ar    1  UNL1        0.0002
     27 C         140.3106  142.2001  169.8757 C.ar    1  UNL1        0.0031
     28 C         141.2245  142.7413  168.8166 C.ar    1  UNL1        0.0375
@<TRIPOS>BOND
     1     1     2    2
     2     2     3   ar
     3     3     4   ar
     4     4     5   ar
     5     5    12    1
     6    12    13    1
     7    13    14   ar
     8    14    15    1
     9    14    16   ar
    10    16    17   ar
    11    17    18    1
    12    17    19   ar
    13    19    20   ar
    14    20    21    1
    15     5     6   ar
    16     6     7   ar
    17     7     8   ar
    18     8     9   ar
    19     9    22    1
    20    22    23    1
    21    23    24   ar
    22    24    25   ar
    23    25    26   ar
    24    26    27   ar
    25    27    28   ar
    26     9    10   ar
    27    10    11   ar
    28    11     2   ar
    29    20    13   ar
    30    11     6   ar
    31    28    23   ar
@<TRIPOS>MOLECULE
*****
 28 31 0 0 0
SMALL
GASTEIGER

@<TRIPOS>ATOM
      1 O         138.4614  139.6290  157.2069 O.2     1  UNL1       -0.2651
      2 C         138.9697  139.7255  158.6148 C.ar    1  UNL1        0.2820
      3 N         138.1580  140.4339  159.6584 N.ar    1  UNL1       -0.1873
      4 C         138.6663  140.5304  161.0664 C.ar    1  UNL1        0.1819
      5 N         139.9864  139.9183  161.4307 N.ar    1  UNL1       -0.3057
      6 C         140.7982  139.2097  160.3871 C.ar    1  UNL1        0.0662
      7 C         142.1182  138.5977  160.7515 C.ar    1  UNL1        0.0205
      8 C         142.9299  137.8892  159.7079 C.ar    1  UNL1        0.0390
      9 C         142.4216  137.7928  158.3000 C.ar    1  UNL1        0.1455
     10 C         141.1016  138.4048  157.9356 C.ar    1  UNL1        0.0437
     11 C         140.2899  139.1133  158.9792 C.ar    1  UNL1        0.0767
     12 C         140.4947  140.0147  162.8387 C.3     1  UNL1        0.1387
     13 C         139.6881  139.4453  163.9679 C.ar    1  UNL1        0.0555
     14 C         138.9832  140.3623  164.9231 C.ar    1  UNL1        0.1424
     15 F         139.0848  141.8486  164.7490 F       1  UNL1       -0.2043
     16 C         138.1766  139.7928  166.0523 C.ar    1  UNL1        0.0591
     17 C         138.0750  138.3064  166.2264 C.ar    1  UNL1        0.1446
     18 F         137.2684  137.7370  167.3556 F       1  UNL1       -0.2040
     19 C         138.7799  137.3895  165.2713 C.ar    1  UNL1        0.0591
     20 C         139.5865  137.9589  164.1420 C.ar    1  UNL1        0.1424
     21 F         140.2914  137.0419  163.1869 F       1  UNL1       -0.2043
     22 O         143.2334  137.0842  157.2564 O.3     1  UNL1       -0.4535
     23 C         142.8213  135.7220  156.7826 C.ar    1  UNL1        0.1453
     24 C         143.4402  134.4978  157.3895 C.ar    1  UNL1        0.0375
     25 C         143.0280  133.1356  156.9156 C.ar    1  UNL1        0.0031
     26 C         141.9969  132.9976  155.8350 C.ar    1  UNL1        0.0002
     27 C         141.3780  134.2218  155.2281 C.ar    1  UNL1        0.0031
     28 C         141.7902  135.5840  155.7019 C.ar    1  UNL1        0.0375
@<TRIPOS>BOND
     1     1     2    2
     2     2     3   ar
     3     3     4   ar
     4     4     5   ar
     5     5    12    1
     6    12    13    1
     7    13    14   ar
     8    14    15    1
     9    14    16   ar
    10    16    17   ar
    11    17    18    1
    12    17    19   ar
    13    19    20   ar
    14    20    21    1
    15     5     6   ar
    16     6     7   ar
    17     7     8   ar
    18     8     9   ar
    19     9    22    1
    20    22    23    1
    21    23    24   ar
    22    24    25   ar
    23    25    26   ar
    24    26    27   ar
    25    27    28   ar
    26     9    10   ar
    27    10    11   ar
    28    11     2   ar
    29    20    13   ar
    30    11     6   ar
    31    28    23   ar
@<TRIPOS>MOLECULE
*****
 28 31 0 0 0
SMALL
GASTEIGER

@<TRIPOS>ATOM
      1 O         137.3498  143.1625  164.2605 O.2     1  UNL1       -0.2651
      2 C         137.7276  142.0047  163.3848 C.ar    1  UNL1        0.2820
      3 N         137.6765  142.1452  161.8923 N.ar    1  UNL1       -0.1873
      4 C         138.0543  140.9873  161.0167 C.ar    1  UNL1        0.1819
      5 N         138.4831  139.6891  161.6335 N.ar    1  UNL1       -0.3057
      6 C         138.5342  139.5486  163.1261 C.ar    1  UNL1        0.0662
      7 C         138.9630  138.2503  163.7430 C.ar    1  UNL1        0.0205
      8 C         139.0141  138.1099  165.2355 C.ar    1  UNL1        0.0390
      9 C         138.6363  139.2677  166.1111 C.ar    1  UNL1        0.1455
     10 C         138.2075  140.5659  165.4943 C.ar    1  UNL1        0.0437
     11 C         138.1565  140.7064  164.0018 C.ar    1  UNL1        0.0767
     12 C         138.8609  138.5313  160.7579 C.3     1  UNL1        0.1387
     13 C         140.0541  138.6321  159.8546 C.ar    1  UNL1        0.0555
     14 C         139.8989  139.1739  158.4645 C.ar    1  UNL1        0.1424
     15 F         138.5504  139.6149  157.9777 F       1  UNL1       -0.2043
     16 C         141.0922  139.2747  157.5612 C.ar    1  UNL1        0.0591
     17 C         142.4407  138.8337  158.0480 C.ar    1  UNL1        0.1446
     18 F         143.6340  138.9345  157.1448 F       1  UNL1       -0.2040
     19 C         142.5960  138.2919  159.4381 C.ar    1  UNL1        0.0591
     20 C         141.4027  138.1911  160.3414 C.ar    1  UNL1        0.1424
     21 F         141.5580  137.6493  161.7315 F       1  UNL1       -0.2043
     22 O         138.6874  139.1272  167.6037 O.3     1  UNL1       -0.4535
     23 C         139.6538  139.9511  168.4019 C.ar    1  UNL1        0.1453
     24 C         139.2197  140.5711  169.6970 C.ar    1  UNL1        0.0375
     25 C         140.1862  141.3950  170.4952 C.ar    1  UNL1        0.0031
     26 C         141.5867  141.5989  169.9984 C.ar    1  UNL1        0.0002
     27 C         142.0209  140.9789  168.7034 C.ar    1  UNL1        0.0031
     28 C         141.0545  140.1550  167.9051 C.ar    1  UNL1        0.0375
@<TRIPOS>BOND
     1     1     2    2
     2     2     3   ar
     3     3     4   ar
     4     4     5   ar
     5     5    12    1
     6    12    13    1
     7    13    14   ar
     8    14    15    1
     9    14    16   ar
    10    16    17   ar
    11    17    18    1
    12    17    19   ar
    13    19    20   ar
    14    20    21    1
    15     5     6   ar
    16     6     7   ar
    17     7     8   ar
    18     8     9   ar
    19     9    22    1
    20    22    23    1
    21    23    24   ar
    22    24    25   ar
    23    25    26   ar
    24    26    27   ar
    25    27    28   ar
    26     9    10   ar
    27    10    11   ar
    28    11     2   ar
    29    20    13   ar
    30    11     6   ar
    31    28    23   ar
@<TRIPOS>MOLECULE
*****
 28 31 0 0 0
SMALL
GASTEIGER

@<TRIPOS>ATOM
      1 O         138.2729  137.1899  163.1907 O.2     1  UNL1       -0.2651
      2 C         138.4609  138.6567  162.9399 C.ar    1  UNL1        0.2820
      3 N         138.3258  139.2032  161.5496 N.ar    1  UNL1       -0.1873
      4 C         138.5138  140.6701  161.2987 C.ar    1  UNL1        0.1819
      5 N         138.8370  141.5905  162.4381 N.ar    1  UNL1       -0.3057
      6 C         138.9722  141.0440  163.8285 C.ar    1  UNL1        0.0662
      7 C         139.2955  141.9644  164.9680 C.ar    1  UNL1        0.0205
      8 C         139.4306  141.4179  166.3583 C.ar    1  UNL1        0.0390
      9 C         139.2426  139.9510  166.6092 C.ar    1  UNL1        0.1455
     10 C         138.9194  139.0306  165.4697 C.ar    1  UNL1        0.0437
     11 C         138.7842  139.5771  164.0794 C.ar    1  UNL1        0.0767
     12 C         139.0251  143.0574  162.1873 C.3     1  UNL1        0.1387
     13 C         140.3619  143.6940  162.4272 C.ar    1  UNL1        0.0555
     14 C         141.5623  143.2311  161.6560 C.ar    1  UNL1        0.1424
     15 F         141.4259  142.1316  160.6448 F       1  UNL1       -0.2043
     16 C         142.8991  143.8677  161.8959 C.ar    1  UNL1        0.0591
     17 C         143.0356  144.9672  162.9071 C.ar    1  UNL1        0.1446
     18 F         144.3724  145.6038  163.1471 F       1  UNL1       -0.2040
     19 C         141.8353  145.4300  163.6784 C.ar    1  UNL1        0.0591
     20 C         140.4983  144.7934  163.4384 C.ar    1  UNL1        0.1424
     21 F         139.2980  145.2563  164.2097 F       1  UNL1       -0.2043
     22 O         139.3778  139.4045  167.9996 O.3     1  UNL1       -0.4535
     23 C         140.3196  140.0514  168.9714 C.ar    1  UNL1        0.1453
     24 C         139.7862  140.9487  170.0486 C.ar    1  UNL1        0.0375
     25 C         140.7281  141.5956  171.0205 C.ar    1  UNL1        0.0031
     26 C         142.2032  141.3453  170.9151 C.ar    1  UNL1        0.0002
     27 C         142.7366  140.4480  169.8378 C.ar    1  UNL1        0.0031
     28 C         141.7948  139.8011  168.8660 C.ar    1  UNL1        0.0375
@<TRIPOS>BOND
     1     1     2    2
     2     2     3   ar
     3     3     4   ar
     4     4     5   ar
     5     5    12    1
     6    12    13    1
     7    13    14   ar
     8    14    15    1
     9    14    16   ar
    10    16    17   ar
    11    17    18    1
    12    17    19   ar
    13    19    20   ar
    14    20    21    1
    15     5     6   ar
    16     6     7   ar
    17     7     8   ar
    18     8     9   ar
    19     9    22    1
    20    22    23    1
    21    23    24   ar
    22    24    25   ar
    23    25    26   ar
    24    26    27   ar
    25    27    28   ar
    26     9    10   ar
    27    10    11   ar
    28    11     2   ar
    29    20    13   ar
    30    11     6   ar
    31    28    23   ar
@<TRIPOS>MOLECULE
*****
 28 31 0 0 0
SMALL
GASTEIGER

@<TRIPOS>ATOM
      1 O         140.0864  146.5132  162.0624 O.2     1  UNL1       -0.2651
      2 C         139.4620  145.1955  162.4145 C.ar    1  UNL1        0.2820
      3 N         138.9350  144.9614  163.7992 N.ar    1  UNL1       -0.1873
      4 C         138.3106  143.6438  164.1512 C.ar    1  UNL1        0.1819
      5 N         138.2132  142.5602  163.1185 N.ar    1  UNL1       -0.3057
      6 C         138.7402  142.7943  161.7337 C.ar    1  UNL1        0.0662
      7 C         138.6428  141.7108  160.7011 C.ar    1  UNL1        0.0205
      8 C         139.1697  141.9449  159.3164 C.ar    1  UNL1        0.0390
      9 C         139.7941  143.2626  158.9643 C.ar    1  UNL1        0.1455
     10 C         139.8916  144.3461  159.9970 C.ar    1  UNL1        0.0437
     11 C         139.3646  144.1120  161.3817 C.ar    1  UNL1        0.0767
     12 C         137.5888  141.2426  163.4706 C.3     1  UNL1        0.1387
     13 C         138.4577  140.0633  163.7933 C.ar    1  UNL1        0.0555
     14 C         139.3691  140.1067  164.9840 C.ar    1  UNL1        0.1424
     15 F         139.4116  141.3294  165.8518 F       1  UNL1       -0.2043
     16 C         140.2380  138.9274  165.3068 C.ar    1  UNL1        0.0591
     17 C         140.1955  137.7046  164.4390 C.ar    1  UNL1        0.1446
     18 F         141.0644  136.5253  164.7617 F       1  UNL1       -0.2040
     19 C         139.2842  137.6612  163.2484 C.ar    1  UNL1        0.0591
     20 C         138.4152  138.8405  162.9255 C.ar    1  UNL1        0.1424
     21 F         137.5039  138.7971  161.7350 F       1  UNL1       -0.2043
     22 O         140.3211  143.4967  157.5796 O.3     1  UNL1       -0.4535
     23 C         139.7266  144.5751  156.7232 C.ar    1  UNL1        0.1453
     24 C         140.3468  145.9406  156.6984 C.ar    1  UNL1        0.0375
     25 C         139.7522  147.0190  155.8420 C.ar    1  UNL1        0.0031
     26 C         138.5374  146.7319  155.0103 C.ar    1  UNL1        0.0002
     27 C         137.9171  145.3664  155.0351 C.ar    1  UNL1        0.0031
     28 C         138.5117  144.2880  155.8915 C.ar    1  UNL1        0.0375
@<TRIPOS>BOND
     1     1     2    2
     2     2     3   ar
     3     3     4   ar
     4     4     5   ar
     5     5    12    1
     6    12    13    1
     7    13    14   ar
     8    14    15    1
     9    14    16   ar
    10    16    17   ar
    11    17    18    1
    12    17    19   ar
    13    19    20   ar
    14    20    21    1
    15     5     6   ar
    16     6     7   ar
    17     7     8   ar
    18     8     9   ar
    19     9    22    1
    20    22    23    1
    21    23    24   ar
    22    24    25   ar
    23    25    26   ar
    24    26    27   ar
    25    27    28   ar
    26     9    10   ar
    27    10    11   ar
    28    11     2   ar
    29    20    13   ar
    30    11     6   ar
    31    28    23   ar
@<TRIPOS>MOLECULE
*****
 28 31 0 0 0
SMALL
GASTEIGER

@<TRIPOS>ATOM
      1 O         138.1797  139.8659  158.5492 O.2     1  UNL1       -0.2651
      2 C         138.6226  139.3605  159.8903 C.ar    1  UNL1        0.2820
      3 N         137.6797  139.4017  161.0561 N.ar    1  UNL1       -0.1873
      4 C         138.1227  138.8963  162.3972 C.ar    1  UNL1        0.1819
      5 N         139.5085  138.3498  162.5724 N.ar    1  UNL1       -0.3057
      6 C         140.4515  138.3086  161.4065 C.ar    1  UNL1        0.0662
      7 C         141.8373  137.7621  161.5817 C.ar    1  UNL1        0.0205
      8 C         142.7802  137.7209  160.4159 C.ar    1  UNL1        0.0390
      9 C         142.3372  138.2262  159.0748 C.ar    1  UNL1        0.1455
     10 C         140.9514  138.7728  158.8996 C.ar    1  UNL1        0.0437
     11 C         140.0085  138.8140  160.0654 C.ar    1  UNL1        0.0767
     12 C         139.9514  137.8444  163.9134 C.3     1  UNL1        0.1387
     13 C         139.9216  138.7547  165.1052 C.ar    1  UNL1        0.0555
     14 C         138.8960  138.5492  166.1805 C.ar    1  UNL1        0.1424
     15 F         137.9004  137.4334  166.0639 F       1  UNL1       -0.2043
     16 C         138.8662  139.4595  167.3723 C.ar    1  UNL1        0.0591
     17 C         139.8618  140.5754  167.4889 C.ar    1  UNL1        0.1446
     18 F         139.8319  141.4857  168.6807 F       1  UNL1       -0.2040
     19 C         140.8873  140.7809  166.4137 C.ar    1  UNL1        0.0591
     20 C         140.9172  139.8706  165.2218 C.ar    1  UNL1        0.1424
     21 F         141.9427  140.0761  164.1467 F       1  UNL1       -0.2043
     22 O         143.2802  138.1850  157.9089 O.3     1  UNL1       -0.4535
     23 C         143.0225  137.2451  156.7688 C.ar    1  UNL1        0.1453
     24 C         142.7359  137.7873  155.3999 C.ar    1  UNL1        0.0375
     25 C         142.4782  136.8473  154.2596 C.ar    1  UNL1        0.0031
     26 C         142.5071  135.3652  154.4883 C.ar    1  UNL1        0.0002
     27 C         142.7937  134.8230  155.8572 C.ar    1  UNL1        0.0031
     28 C         143.0514  135.7629  156.9974 C.ar    1  UNL1        0.0375
@<TRIPOS>BOND
     1     1     2    2
     2     2     3   ar
     3     3     4   ar
     4     4     5   ar
     5     5    12    1
     6    12    13    1
     7    13    14   ar
     8    14    15    1
     9    14    16   ar
    10    16    17   ar
    11    17    18    1
    12    17    19   ar
    13    19    20   ar
    14    20    21    1
    15     5     6   ar
    16     6     7   ar
    17     7     8   ar
    18     8     9   ar
    19     9    22    1
    20    22    23    1
    21    23    24   ar
    22    24    25   ar
    23    25    26   ar
    24    26    27   ar
    25    27    28   ar
    26     9    10   ar
    27    10    11   ar
    28    11     2   ar
    29    20    13   ar
    30    11     6   ar
    31    28    23   ar
