@<TRIPOS>MOLECULE
*****
 36 39 0 0 0
SMALL
GASTEIGER

@<TRIPOS>ATOM
      1 C         139.4454  139.7233  168.0841 C.3     1  UNL1        0.0344
      2 C         139.6298  140.9437  167.2317 C.ar    1  UNL1        0.0164
      3 C         140.2015  142.1957  167.8280 C.ar    1  UNL1        0.1404
      4 C         140.3858  143.4161  166.9756 C.ar    1  UNL1        0.0365
      5 C         139.9985  143.3845  165.5269 C.ar    1  UNL1        0.0010
      6 C         139.4268  142.1325  164.9305 C.ar    1  UNL1        0.0088
      7 C         139.2424  140.9121  165.7829 C.ar    1  UNL1        0.0506
      8 C         138.6589  139.8302  164.9233 C.2     1  UNL1        0.2493
      9 O         138.3124  138.4405  165.3692 O.2     1  UNL1       -0.2699
     10 N         138.4825  140.3819  163.5397 N.am    1  UNL1       -0.2620
     11 C         138.9572  141.8048  163.5441 C.3     1  UNL1        0.1753
     12 C         138.9614  142.7365  162.3686 C.2     1  UNL1        0.2448
     13 O         137.6740  143.0821  161.6808 O.2     1  UNL1       -0.2729
     14 N         140.2532  143.3226  161.8807 N.am    1  UNL1       -0.3059
     15 H         141.0982  143.0958  162.3321 H       1  UNL1        0.1494
     16 C         140.2574  144.2543  160.7052 C.3     1  UNL1        0.0569
     17 C         140.4316  143.0863  159.7802 C.3     1  UNL1        0.0196
     18 C         140.0833  145.4222  161.6302 C.3     1  UNL1        0.0196
     19 C         140.2617  145.1859  159.5297 C.3     1  UNL1        0.0196
     20 O         140.5888  142.2273  169.2769 O.3     1  UNL1       -0.4240
     21 C         141.1758  143.4741  169.8692 C.3     1  UNL1        0.5086
     22 F         140.3290  144.7029  170.0212 F       1  UNL1       -0.1550
     23 F         142.6096  143.4921  170.3096 F       1  UNL1       -0.1550
     24 C         137.9288  139.6408  162.3589 C.3     1  UNL1        0.1212
     25 C         138.6888  139.6150  161.0660 C.ar    1  UNL1       -0.0023
     26 C         138.0089  140.0091  159.7883 C.ar    1  UNL1       -0.0026
     27 C         138.7688  139.9833  158.4954 C.ar    1  UNL1       -0.0003
     28 C         140.2088  139.5633  158.4800 C.ar    1  UNL1       -0.0000
     29 C         140.8887  139.1692  159.7576 C.ar    1  UNL1       -0.0003
     30 C         140.1287  139.1950  161.0507 C.ar    1  UNL1       -0.0024
     31 C         140.8087  138.8009  162.3282 C.ar    1  UNL1       -0.0003
     32 C         141.7427  139.7584  163.0071 C.ar    1  UNL1       -0.0000
     33 C         142.4226  139.3642  164.2847 C.ar    1  UNL1       -0.0000
     34 C         142.1686  138.0125  164.8835 C.ar    1  UNL1       -0.0000
     35 C         141.2346  137.0550  164.2046 C.ar    1  UNL1       -0.0000
     36 C         140.5546  137.4492  162.9270 C.ar    1  UNL1       -0.0000
@<TRIPOS>BOND
     1     1     2    1
     2     2     3   ar
     3     3    20    1
     4    20    21    1
     5    21    22    1
     6    21    23    1
     7     3     4   ar
     8     4     5   ar
     9     5     6   ar
    10     6     7   ar
    11     7     8    1
    12     8     9    2
    13     8    10   am
    14    10    24    1
    15    24    25    1
    16    25    26   ar
    17    26    27   ar
    18    27    28   ar
    19    28    29   ar
    20    29    30   ar
    21    30    31    1
    22    31    32   ar
    23    32    33   ar
    24    33    34   ar
    25    34    35   ar
    26    35    36   ar
    27    10    11    1
    28    11    12    1
    29    12    13    2
    30    12    14   am
    31    14    16    1
    32    16    17    1
    33    16    18    1
    34    16    19    1
    35     7     2   ar
    36    30    25   ar
    37    36    31   ar
    38    11     6    1
    39    14    15    1
@<TRIPOS>MOLECULE
*****
 36 39 0 0 0
SMALL
GASTEIGER

@<TRIPOS>ATOM
      1 C         142.7836  138.7551  167.7845 C.3     1  UNL1        0.0344
      2 C         142.6772  140.0638  167.0593 C.ar    1  UNL1        0.0164
      3 C         142.9090  141.3501  167.7952 C.ar    1  UNL1        0.1404
      4 C         142.8027  142.6588  167.0699 C.ar    1  UNL1        0.0365
      5 C         142.4645  142.6812  165.6088 C.ar    1  UNL1        0.0010
      6 C         142.2327  141.3949  164.8728 C.ar    1  UNL1        0.0088
      7 C         142.3390  140.0862  165.5981 C.ar    1  UNL1        0.0506
      8 C         142.0589  138.9877  164.6157 C.2     1  UNL1        0.2493
      9 O         142.0584  137.5176  164.9135 O.2     1  UNL1       -0.2699
     10 N         141.7794  139.6175  163.2834 N.am    1  UNL1       -0.2620
     11 C         141.8868  141.1052  163.4423 C.3     1  UNL1        0.1753
     12 C         141.6839  142.1244  162.3605 C.2     1  UNL1        0.2448
     13 O         142.5666  142.1169  161.1479 O.2     1  UNL1       -0.2729
     14 N         140.5982  143.1512  162.4915 N.am    1  UNL1       -0.3059
     15 H         140.0188  143.1562  163.2875 H       1  UNL1        0.1494
     16 C         140.3954  144.1704  161.4098 C.3     1  UNL1        0.0569
     17 C         139.4218  143.2542  160.7294 C.3     1  UNL1        0.0196
     18 C         141.3689  145.0864  162.0903 C.3     1  UNL1        0.0196
     19 C         140.1925  145.1895  160.3281 C.3     1  UNL1        0.0196
     20 O         143.2472  141.3277  169.2564 O.3     1  UNL1       -0.4240
     21 C         143.7137  142.5801  169.9375 C.3     1  UNL1        0.5086
     22 F         145.1801  142.8214  170.1415 F       1  UNL1       -0.1550
     23 F         142.7138  143.5913  170.4147 F       1  UNL1       -0.1550
     24 C         141.4503  138.8878  162.0148 C.3     1  UNL1        0.1212
     25 C         140.2650  139.3048  161.1956 C.ar    1  UNL1       -0.0023
     26 C         140.4308  139.6048  159.7352 C.ar    1  UNL1       -0.0026
     27 C         139.2455  140.0218  158.9160 C.ar    1  UNL1       -0.0003
     28 C         137.8944  140.1388  159.5571 C.ar    1  UNL1       -0.0000
     29 C         137.7287  139.8388  161.0173 C.ar    1  UNL1       -0.0003
     30 C         138.9140  139.4218  161.8367 C.ar    1  UNL1       -0.0024
     31 C         138.7482  139.1219  163.2970 C.ar    1  UNL1       -0.0003
     32 C         138.5335  140.2406  164.2728 C.ar    1  UNL1       -0.0000
     33 C         138.3677  139.9407  165.7331 C.ar    1  UNL1       -0.0000
     34 C         138.4166  138.5219  166.2176 C.ar    1  UNL1       -0.0000
     35 C         138.6314  137.4031  165.2418 C.ar    1  UNL1       -0.0000
     36 C         138.7971  137.7031  163.7814 C.ar    1  UNL1       -0.0000
@<TRIPOS>BOND
     1     1     2    1
     2     2     3   ar
     3     3    20    1
     4    20    21    1
     5    21    22    1
     6    21    23    1
     7     3     4   ar
     8     4     5   ar
     9     5     6   ar
    10     6     7   ar
    11     7     8    1
    12     8     9    2
    13     8    10   am
    14    10    24    1
    15    24    25    1
    16    25    26   ar
    17    26    27   ar
    18    27    28   ar
    19    28    29   ar
    20    29    30   ar
    21    30    31    1
    22    31    32   ar
    23    32    33   ar
    24    33    34   ar
    25    34    35   ar
    26    35    36   ar
    27    10    11    1
    28    11    12    1
    29    12    13    2
    30    12    14   am
    31    14    16    1
    32    16    17    1
    33    16    18    1
    34    16    19    1
    35     7     2   ar
    36    30    25   ar
    37    36    31   ar
    38    11     6    1
    39    14    15    1
@<TRIPOS>MOLECULE
*****
 36 39 0 0 0
SMALL
GASTEIGER

@<TRIPOS>ATOM
      1 C         140.3421  145.3471  160.2085 C.3     1  UNL1        0.0344
      2 C         141.4189  144.3940  160.6352 C.ar    1  UNL1        0.0164
      3 C         142.5232  144.0361  159.6853 C.ar    1  UNL1        0.1404
      4 C         143.6001  143.0830  160.1120 C.ar    1  UNL1        0.0365
      5 C         143.5727  142.4880  161.4886 C.ar    1  UNL1        0.0010
      6 C         142.4684  142.8459  162.4385 C.ar    1  UNL1        0.0088
      7 C         141.3915  143.7990  162.0118 C.ar    1  UNL1        0.0506
      8 C         140.4374  143.9632  163.1575 C.2     1  UNL1        0.2493
      9 O         139.2113  144.8273  163.1667 O.2     1  UNL1       -0.2699
     10 N         140.9245  143.1117  164.2922 N.am    1  UNL1       -0.2620
     11 C         142.1797  142.4212  163.8478 C.3     1  UNL1        0.1753
     12 C         143.0020  141.4725  164.6687 C.2     1  UNL1        0.2448
     13 O         143.9717  142.0040  165.6822 O.2     1  UNL1       -0.2729
     14 N         142.8546  139.9922  164.4761 N.am    1  UNL1       -0.3059
     15 H         142.2182  139.6433  163.8109 H       1  UNL1        0.1494
     16 C         143.6769  139.0435  165.2969 C.3     1  UNL1        0.0569
     17 C         144.8693  139.3296  164.4330 C.3     1  UNL1        0.0196
     18 C         142.4845  138.7574  166.1608 C.3     1  UNL1        0.0196
     19 C         144.4992  138.0948  166.1177 C.3     1  UNL1        0.0196
     20 O         142.5507  144.6312  158.3086 O.3     1  UNL1       -0.4240
     21 C         141.8044  143.9673  157.1895 C.3     1  UNL1        0.5086
     22 F         142.4082  143.9064  155.8177 F       1  UNL1       -0.1550
     23 F         140.4544  143.3643  157.4422 F       1  UNL1       -0.1550
     24 C         140.2711  142.9748  165.6355 C.3     1  UNL1        0.1212
     25 C         139.6434  141.6724  166.0349 C.ar    1  UNL1       -0.0023
     26 C         138.7420  140.9496  165.0782 C.ar    1  UNL1       -0.0026
     27 C         138.1143  139.6472  165.4777 C.ar    1  UNL1       -0.0003
     28 C         138.3880  139.0674  166.8338 C.ar    1  UNL1       -0.0000
     29 C         139.2893  139.7901  167.7904 C.ar    1  UNL1       -0.0003
     30 C         139.9171  141.0927  167.3910 C.ar    1  UNL1       -0.0024
     31 C         140.8184  141.8153  168.3477 C.ar    1  UNL1       -0.0003
     32 C         140.2708  142.9142  169.2095 C.ar    1  UNL1       -0.0000
     33 C         141.1721  143.6369  170.1661 C.ar    1  UNL1       -0.0000
     34 C         142.6212  143.2607  170.2610 C.ar    1  UNL1       -0.0000
     35 C         143.1688  142.1619  169.3992 C.ar    1  UNL1       -0.0000
     36 C         142.2673  141.4392  168.4425 C.ar    1  UNL1       -0.0000
@<TRIPOS>BOND
     1     1     2    1
     2     2     3   ar
     3     3    20    1
     4    20    21    1
     5    21    22    1
     6    21    23    1
     7     3     4   ar
     8     4     5   ar
     9     5     6   ar
    10     6     7   ar
    11     7     8    1
    12     8     9    2
    13     8    10   am
    14    10    24    1
    15    24    25    1
    16    25    26   ar
    17    26    27   ar
    18    27    28   ar
    19    28    29   ar
    20    29    30   ar
    21    30    31    1
    22    31    32   ar
    23    32    33   ar
    24    33    34   ar
    25    34    35   ar
    26    35    36   ar
    27    10    11    1
    28    11    12    1
    29    12    13    2
    30    12    14   am
    31    14    16    1
    32    16    17    1
    33    16    18    1
    34    16    19    1
    35     7     2   ar
    36    30    25   ar
    37    36    31   ar
    38    11     6    1
    39    14    15    1
@<TRIPOS>MOLECULE
*****
 36 39 0 0 0
SMALL
GASTEIGER

@<TRIPOS>ATOM
      1 C         140.1855  140.6040  168.0685 C.3     1  UNL1        0.0344
      2 C         140.9947  139.9728  166.9746 C.ar    1  UNL1        0.0164
      3 C         142.3868  139.4895  167.2548 C.ar    1  UNL1        0.1404
      4 C         143.1960  138.8583  166.1609 C.ar    1  UNL1        0.0365
      5 C         142.6132  138.7104  164.7867 C.ar    1  UNL1        0.0010
      6 C         141.2211  139.1936  164.5065 C.ar    1  UNL1        0.0088
      7 C         140.4119  139.8249  165.6004 C.ar    1  UNL1        0.0506
      8 C         139.0774  140.2041  165.0300 C.2     1  UNL1        0.2493
      9 O         137.9554  140.8642  165.7753 O.2     1  UNL1       -0.2699
     10 N         139.0618  139.8072  163.5836 N.am    1  UNL1       -0.2620
     11 C         140.3867  139.1827  163.2600 C.3     1  UNL1        0.1753
     12 C         140.8040  138.6422  161.9245 C.2     1  UNL1        0.2448
     13 O         140.0250  137.5290  161.2892 O.2     1  UNL1       -0.2729
     14 N         142.0005  139.2150  161.2241 N.am    1  UNL1       -0.3059
     15 H         142.5119  139.9457  161.6410 H       1  UNL1        0.1494
     16 C         142.4178  138.6745  159.8886 C.3     1  UNL1        0.0569
     17 C         143.2532  137.6324  160.5714 C.3     1  UNL1        0.0196
     18 C         141.5825  139.7166  159.2058 C.3     1  UNL1        0.0196
     19 C         142.8351  138.1340  158.5531 C.3     1  UNL1        0.0196
     20 O         142.9697  139.6375  168.6291 O.3     1  UNL1       -0.4240
     21 C         142.5061  138.7434  169.7406 C.3     1  UNL1        0.5086
     22 F         143.2530  137.4792  170.0474 F       1  UNL1       -0.1550
     23 F         141.2955  139.1134  170.5454 F       1  UNL1       -0.1550
     24 C         137.9216  140.0008  162.6284 C.3     1  UNL1        0.1212
     25 C         138.1475  140.7059  161.3239 C.ar    1  UNL1       -0.0023
     26 C         137.9074  139.9853  160.0304 C.ar    1  UNL1       -0.0026
     27 C         138.1333  140.6904  158.7259 C.ar    1  UNL1       -0.0003
     28 C         138.5992  142.1162  158.7148 C.ar    1  UNL1       -0.0000
     29 C         138.8393  142.8368  160.0082 C.ar    1  UNL1       -0.0003
     30 C         138.6134  142.1317  161.3128 C.ar    1  UNL1       -0.0024
     31 C         138.8534  142.8523  162.6063 C.ar    1  UNL1       -0.0003
     32 C         140.2453  142.9678  163.1534 C.ar    1  UNL1       -0.0000
     33 C         140.4854  143.6885  164.4468 C.ar    1  UNL1       -0.0000
     34 C         139.3335  144.2936  165.1932 C.ar    1  UNL1       -0.0000
     35 C         137.9416  144.1781  164.6461 C.ar    1  UNL1       -0.0000
     36 C         137.7016  143.4575  163.3526 C.ar    1  UNL1       -0.0000
@<TRIPOS>BOND
     1     1     2    1
     2     2     3   ar
     3     3    20    1
     4    20    21    1
     5    21    22    1
     6    21    23    1
     7     3     4   ar
     8     4     5   ar
     9     5     6   ar
    10     6     7   ar
    11     7     8    1
    12     8     9    2
    13     8    10   am
    14    10    24    1
    15    24    25    1
    16    25    26   ar
    17    26    27   ar
    18    27    28   ar
    19    28    29   ar
    20    29    30   ar
    21    30    31    1
    22    31    32   ar
    23    32    33   ar
    24    33    34   ar
    25    34    35   ar
    26    35    36   ar
    27    10    11    1
    28    11    12    1
    29    12    13    2
    30    12    14   am
    31    14    16    1
    32    16    17    1
    33    16    18    1
    34    16    19    1
    35     7     2   ar
    36    30    25   ar
    37    36    31   ar
    38    11     6    1
    39    14    15    1
@<TRIPOS>MOLECULE
*****
 36 39 0 0 0
SMALL
GASTEIGER

@<TRIPOS>ATOM
      1 C         140.2434  141.1682  170.0047 C.3     1  UNL1        0.0344
      2 C         139.5163  140.3636  168.9685 C.ar    1  UNL1        0.0164
      3 C         138.2946  139.5806  169.3481 C.ar    1  UNL1        0.1404
      4 C         137.5674  138.7759  168.3119 C.ar    1  UNL1        0.0365
      5 C         138.0620  138.7543  166.8960 C.ar    1  UNL1        0.0010
      6 C         139.2837  139.5373  166.5163 C.ar    1  UNL1        0.0088
      7 C         140.0109  140.3420  167.5525 C.ar    1  UNL1        0.0506
      8 C         141.1780  141.0087  166.8868 C.2     1  UNL1        0.2493
      9 O         142.1758  141.9098  167.5519 O.2     1  UNL1       -0.2699
     10 N         141.1722  140.6161  165.4391 N.am    1  UNL1       -0.2620
     11 C         140.0015  139.7068  165.2101 C.3     1  UNL1        0.1753
     12 C         139.6161  139.0773  163.9042 C.2     1  UNL1        0.2448
     13 O         139.2817  137.6163  163.8456 O.2     1  UNL1       -0.2729
     14 N         139.5652  139.9090  162.6569 N.am    1  UNL1       -0.3059
     15 H         139.7847  140.8680  162.6953 H       1  UNL1        0.1494
     16 C         139.1798  139.2796  161.3510 C.3     1  UNL1        0.0569
     17 C         137.7302  139.4552  161.6942 C.3     1  UNL1        0.0196
     18 C         140.6294  139.1040  161.0078 C.3     1  UNL1        0.0196
     19 C         138.7944  138.6502  160.0452 C.3     1  UNL1        0.0196
     20 O         137.7999  139.6022  170.7641 O.3     1  UNL1       -0.4240
     21 C         136.4690  138.9990  171.1029 C.3     1  UNL1        0.5086
     22 F         136.1869  137.5654  170.7633 F       1  UNL1       -0.1550
     23 F         135.4201  139.8294  171.7813 F       1  UNL1       -0.1550
     24 C         142.1632  141.0557  164.4023 C.3     1  UNL1        0.1212
     25 C         142.7582  142.4310  164.4691 C.ar    1  UNL1       -0.0023
     26 C         144.1345  142.6261  165.0331 C.ar    1  UNL1       -0.0026
     27 C         144.7296  144.0014  165.0999 C.ar    1  UNL1       -0.0003
     28 C         143.9485  145.1815  164.6028 C.ar    1  UNL1       -0.0000
     29 C         142.5723  144.9865  164.0389 C.ar    1  UNL1       -0.0003
     30 C         141.9771  143.6111  163.9720 C.ar    1  UNL1       -0.0024
     31 C         140.6010  143.4161  163.4081 C.ar    1  UNL1       -0.0003
     32 C         140.4110  143.2694  161.9274 C.ar    1  UNL1       -0.0000
     33 C         139.0348  143.0743  161.3635 C.ar    1  UNL1       -0.0000
     34 C         137.8485  143.0259  162.2803 C.ar    1  UNL1       -0.0000
     35 C         138.0385  143.1725  163.7610 C.ar    1  UNL1       -0.0000
     36 C         139.4148  143.3676  164.3249 C.ar    1  UNL1       -0.0000
@<TRIPOS>BOND
     1     1     2    1
     2     2     3   ar
     3     3    20    1
     4    20    21    1
     5    21    22    1
     6    21    23    1
     7     3     4   ar
     8     4     5   ar
     9     5     6   ar
    10     6     7   ar
    11     7     8    1
    12     8     9    2
    13     8    10   am
    14    10    24    1
    15    24    25    1
    16    25    26   ar
    17    26    27   ar
    18    27    28   ar
    19    28    29   ar
    20    29    30   ar
    21    30    31    1
    22    31    32   ar
    23    32    33   ar
    24    33    34   ar
    25    34    35   ar
    26    35    36   ar
    27    10    11    1
    28    11    12    1
    29    12    13    2
    30    12    14   am
    31    14    16    1
    32    16    17    1
    33    16    18    1
    34    16    19    1
    35     7     2   ar
    36    30    25   ar
    37    36    31   ar
    38    11     6    1
    39    14    15    1
@<TRIPOS>MOLECULE
*****
 36 39 0 0 0
SMALL
GASTEIGER

@<TRIPOS>ATOM
      1 C         143.0022  139.3997  168.1999 C.3     1  UNL1        0.0344
      2 C         141.7990  139.4737  167.3072 C.ar    1  UNL1        0.0164
      3 C         140.4555  139.8065  167.8853 C.ar    1  UNL1        0.1404
      4 C         139.2523  139.8805  166.9927 C.ar    1  UNL1        0.0365
      5 C         139.3926  139.6219  165.5218 C.ar    1  UNL1        0.0010
      6 C         140.7361  139.2891  164.9437 C.ar    1  UNL1        0.0088
      7 C         141.9393  139.2151  165.8364 C.ar    1  UNL1        0.0506
      8 C         143.1258  138.8674  164.9871 C.2     1  UNL1        0.2493
      9 O         144.5348  138.6914  165.4705 O.2     1  UNL1       -0.2699
     10 N         142.6560  138.7266  163.5695 N.am    1  UNL1       -0.2620
     11 C         141.1791  138.9873  163.5427 C.3     1  UNL1        0.1753
     12 C         140.2995  138.9522  162.3282 C.2     1  UNL1        0.2448
     13 O         140.1530  137.6816  161.5446 O.2     1  UNL1       -0.2729
     14 N         139.5663  140.1879  161.8972 N.am    1  UNL1       -0.3059
     15 H         139.6624  141.0219  162.4115 H       1  UNL1        0.1494
     16 C         138.6867  140.1528  160.6827 C.3     1  UNL1        0.0569
     17 C         137.5766  139.5665  161.5037 C.3     1  UNL1        0.0196
     18 C         139.7968  140.7391  159.8618 C.3     1  UNL1        0.0196
     19 C         137.8071  140.1177  159.4682 C.3     1  UNL1        0.0196
     20 O         140.3151  140.0652  169.3562 O.3     1  UNL1       -0.4240
     21 C         139.0584  140.6842  169.8923 C.3     1  UNL1        0.5086
     22 F         139.0512  142.1248  170.3104 F       1  UNL1       -0.1550
     23 F         137.8089  139.8628  170.0102 F       1  UNL1       -0.1550
     24 C         143.5127  138.3852  162.3865 C.3     1  UNL1        0.1212
     25 C         143.3953  139.1813  161.1208 C.ar    1  UNL1       -0.0023
     26 C         143.1106  138.4873  159.8218 C.ar    1  UNL1       -0.0026
     27 C         142.9933  139.2835  158.5560 C.ar    1  UNL1       -0.0003
     28 C         143.1605  140.7737  158.5891 C.ar    1  UNL1       -0.0000
     29 C         143.4452  141.4678  159.8880 C.ar    1  UNL1       -0.0003
     30 C         143.5626  140.6716  161.1539 C.ar    1  UNL1       -0.0024
     31 C         143.8472  141.3657  162.4528 C.ar    1  UNL1       -0.0003
     32 C         142.7533  142.1072  163.1624 C.ar    1  UNL1       -0.0000
     33 C         143.0380  142.8013  164.4613 C.ar    1  UNL1       -0.0000
     34 C         144.4166  142.7539  165.0506 C.ar    1  UNL1       -0.0000
     35 C         145.5105  142.0124  164.3410 C.ar    1  UNL1       -0.0000
     36 C         145.2258  141.3183  163.0420 C.ar    1  UNL1       -0.0000
@<TRIPOS>BOND
     1     1     2    1
     2     2     3   ar
     3     3    20    1
     4    20    21    1
     5    21    22    1
     6    21    23    1
     7     3     4   ar
     8     4     5   ar
     9     5     6   ar
    10     6     7   ar
    11     7     8    1
    12     8     9    2
    13     8    10   am
    14    10    24    1
    15    24    25    1
    16    25    26   ar
    17    26    27   ar
    18    27    28   ar
    19    28    29   ar
    20    29    30   ar
    21    30    31    1
    22    31    32   ar
    23    32    33   ar
    24    33    34   ar
    25    34    35   ar
    26    35    36   ar
    27    10    11    1
    28    11    12    1
    29    12    13    2
    30    12    14   am
    31    14    16    1
    32    16    17    1
    33    16    18    1
    34    16    19    1
    35     7     2   ar
    36    30    25   ar
    37    36    31   ar
    38    11     6    1
    39    14    15    1
@<TRIPOS>MOLECULE
*****
 36 39 0 0 0
SMALL
GASTEIGER

@<TRIPOS>ATOM
      1 C         143.9921  141.4473  159.5558 C.3     1  UNL1        0.0344
      2 C         142.9883  140.5482  160.2146 C.ar    1  UNL1        0.0164
      3 C         142.7408  139.1732  159.6687 C.ar    1  UNL1        0.1404
      4 C         141.7370  138.2741  160.3274 C.ar    1  UNL1        0.0365
      5 C         140.9806  138.7500  161.5321 C.ar    1  UNL1        0.0010
      6 C         141.2281  140.1250  162.0781 C.ar    1  UNL1        0.0088
      7 C         142.2319  141.0241  161.4193 C.ar    1  UNL1        0.0506
      8 C         142.2626  142.3183  162.1770 C.2     1  UNL1        0.2493
      9 O         143.1265  143.5036  161.8628 O.2     1  UNL1       -0.2699
     10 N         141.2778  142.2191  163.3041 N.am    1  UNL1       -0.2620
     11 C         140.6384  140.8636  163.2429 C.3     1  UNL1        0.1753
     12 C         139.5929  140.3387  164.1818 C.2     1  UNL1        0.2448
     13 O         138.2207  140.9442  164.1905 O.2     1  UNL1       -0.2729
     14 N         139.9198  139.2082  165.1120 N.am    1  UNL1       -0.3059
     15 H         140.8204  138.8107  165.1063 H       1  UNL1        0.1494
     16 C         138.8743  138.6833  166.0509 C.3     1  UNL1        0.0569
     17 C         138.5161  137.6186  165.0567 C.3     1  UNL1        0.0196
     18 C         139.2325  139.7479  167.0450 C.3     1  UNL1        0.0196
     19 C         137.8288  138.1584  166.9896 C.3     1  UNL1        0.0196
     20 O         143.4972  138.6972  158.4639 O.3     1  UNL1       -0.4240
     21 C         142.7714  138.0081  157.3467 C.3     1  UNL1        0.5086
     22 F         142.1869  138.8122  156.2234 F       1  UNL1       -0.1550
     23 F         142.6301  136.5147  157.3527 F       1  UNL1       -0.1550
     24 C         140.9840  143.2878  164.3149 C.3     1  UNL1        0.1212
     25 C         141.0795  142.9810  165.7800 C.ar    1  UNL1       -0.0023
     26 C         139.9493  143.3432  166.6974 C.ar    1  UNL1       -0.0026
     27 C         140.0447  143.0364  168.1625 C.ar    1  UNL1       -0.0003
     28 C         141.2704  142.3674  168.7104 C.ar    1  UNL1       -0.0000
     29 C         142.4006  142.0051  167.7931 C.ar    1  UNL1       -0.0003
     30 C         142.3051  142.3119  166.3279 C.ar    1  UNL1       -0.0024
     31 C         143.4353  141.9497  165.4106 C.ar    1  UNL1       -0.0003
     32 C         144.3845  143.0094  164.9352 C.ar    1  UNL1       -0.0000
     33 C         145.5147  142.6472  164.0179 C.ar    1  UNL1       -0.0000
     34 C         145.6957  141.2251  163.5760 C.ar    1  UNL1       -0.0000
     35 C         144.7465  140.1654  164.0514 C.ar    1  UNL1       -0.0000
     36 C         143.6163  140.5277  164.9688 C.ar    1  UNL1       -0.0000
@<TRIPOS>BOND
     1     1     2    1
     2     2     3   ar
     3     3    20    1
     4    20    21    1
     5    21    22    1
     6    21    23    1
     7     3     4   ar
     8     4     5   ar
     9     5     6   ar
    10     6     7   ar
    11     7     8    1
    12     8     9    2
    13     8    10   am
    14    10    24    1
    15    24    25    1
    16    25    26   ar
    17    26    27   ar
    18    27    28   ar
    19    28    29   ar
    20    29    30   ar
    21    30    31    1
    22    31    32   ar
    23    32    33   ar
    24    33    34   ar
    25    34    35   ar
    26    35    36   ar
    27    10    11    1
    28    11    12    1
    29    12    13    2
    30    12    14   am
    31    14    16    1
    32    16    17    1
    33    16    18    1
    34    16    19    1
    35     7     2   ar
    36    30    25   ar
    37    36    31   ar
    38    11     6    1
    39    14    15    1
@<TRIPOS>MOLECULE
*****
 36 39 0 0 0
SMALL
GASTEIGER

@<TRIPOS>ATOM
      1 C         142.5648  139.2729  168.1577 C.3     1  UNL1        0.0344
      2 C         142.0560  140.5116  167.4819 C.ar    1  UNL1        0.0164
      3 C         141.1832  141.4718  168.2345 C.ar    1  UNL1        0.1404
      4 C         140.6744  142.7105  167.5588 C.ar    1  UNL1        0.0365
      5 C         141.0383  142.9891  166.1305 C.ar    1  UNL1        0.0010
      6 C         141.9110  142.0289  165.3780 C.ar    1  UNL1        0.0088
      7 C         142.4199  140.7902  166.0537 C.ar    1  UNL1        0.0506
      8 C         143.2562  140.0332  165.0650 C.2     1  UNL1        0.2493
      9 O         143.9608  138.7334  165.3186 O.2     1  UNL1       -0.2699
     10 N         143.2642  140.8040  163.7783 N.am    1  UNL1       -0.2620
     11 C         142.4329  142.0374  163.9717 C.3     1  UNL1        0.1753
     12 C         142.1695  143.0940  162.9400 C.2     1  UNL1        0.2448
     13 O         143.3134  143.8492  162.3310 O.2     1  UNL1       -0.2729
     14 N         140.7621  143.3953  162.5173 N.am    1  UNL1       -0.3059
     15 H         140.0113  142.8996  162.9170 H       1  UNL1        0.1494
     16 C         140.4988  144.4518  161.4856 C.3     1  UNL1        0.0569
     17 C         140.5802  143.4157  160.4039 C.3     1  UNL1        0.0196
     18 C         140.4174  145.4878  162.5673 C.3     1  UNL1        0.0196
     19 C         140.2355  145.5083  160.4539 C.3     1  UNL1        0.0196
     20 O         140.8193  141.1932  169.6628 O.3     1  UNL1       -0.4240
     21 C         139.4839  141.6227  170.1939 C.3     1  UNL1        0.5086
     22 F         139.3185  142.9884  170.7920 F       1  UNL1       -0.1550
     23 F         138.3138  140.6865  170.1271 F       1  UNL1       -0.1550
     24 C         143.9782  140.4105  162.5192 C.3     1  UNL1        0.1212
     25 C         143.2519  140.4325  161.2069 C.ar    1  UNL1       -0.0023
     26 C         143.8582  141.1305  160.0257 C.ar    1  UNL1       -0.0026
     27 C         143.1320  141.1525  158.7135 C.ar    1  UNL1       -0.0003
     28 C         141.7994  140.4765  158.5824 C.ar    1  UNL1       -0.0000
     29 C         141.1930  139.7785  159.7635 C.ar    1  UNL1       -0.0003
     30 C         141.9193  139.7565  161.0758 C.ar    1  UNL1       -0.0024
     31 C         141.3130  139.0585  162.2570 C.ar    1  UNL1       -0.0003
     32 C         140.1682  139.6881  162.9938 C.ar    1  UNL1       -0.0000
     33 C         139.5619  138.9901  164.1750 C.ar    1  UNL1       -0.0000
     34 C         140.1004  137.6624  164.6193 C.ar    1  UNL1       -0.0000
     35 C         141.2452  137.0328  163.8825 C.ar    1  UNL1       -0.0000
     36 C         141.8515  137.7309  162.7013 C.ar    1  UNL1       -0.0000
@<TRIPOS>BOND
     1     1     2    1
     2     2     3   ar
     3     3    20    1
     4    20    21    1
     5    21    22    1
     6    21    23    1
     7     3     4   ar
     8     4     5   ar
     9     5     6   ar
    10     6     7   ar
    11     7     8    1
    12     8     9    2
    13     8    10   am
    14    10    24    1
    15    24    25    1
    16    25    26   ar
    17    26    27   ar
    18    27    28   ar
    19    28    29   ar
    20    29    30   ar
    21    30    31    1
    22    31    32   ar
    23    32    33   ar
    24    33    34   ar
    25    34    35   ar
    26    35    36   ar
    27    10    11    1
    28    11    12    1
    29    12    13    2
    30    12    14   am
    31    14    16    1
    32    16    17    1
    33    16    18    1
    34    16    19    1
    35     7     2   ar
    36    30    25   ar
    37    36    31   ar
    38    11     6    1
    39    14    15    1
@<TRIPOS>MOLECULE
*****
 36 39 0 0 0
SMALL
GASTEIGER

@<TRIPOS>ATOM
      1 C         143.0494  143.6165  158.8646 C.3     1  UNL1        0.0344
      2 C         142.0278  142.6375  159.3625 C.ar    1  UNL1        0.0164
      3 C         140.7128  142.5004  158.6541 C.ar    1  UNL1        0.1404
      4 C         139.6912  141.5214  159.1520 C.ar    1  UNL1        0.0365
      5 C         139.9846  140.6795  160.3582 C.ar    1  UNL1        0.0010
      6 C         141.2997  140.8167  161.0666 C.ar    1  UNL1        0.0088
      7 C         142.3213  141.7957  160.5687 C.ar    1  UNL1        0.0506
      8 C         143.5201  141.7112  161.4663 C.2     1  UNL1        0.2493
      9 O         144.7787  142.5166  161.3343 O.2     1  UNL1       -0.2699
     10 N         143.2395  140.6801  162.5188 N.am    1  UNL1       -0.2620
     11 C         141.8672  140.1272  162.2718 C.3     1  UNL1        0.1753
     12 C         141.1825  139.0704  163.0870 C.2     1  UNL1        0.2448
     13 O         141.7929  137.7059  163.2108 O.2     1  UNL1       -0.2729
     14 N         139.8873  139.3782  163.7783 N.am    1  UNL1       -0.3059
     15 H         139.4866  140.2738  163.6970 H       1  UNL1        0.1494
     16 C         139.2027  138.3214  164.5934 C.3     1  UNL1        0.0569
     17 C         138.6900  137.6839  163.3361 C.3     1  UNL1        0.0196
     18 C         139.7154  138.9589  165.8507 C.3     1  UNL1        0.0196
     19 C         138.5180  137.2646  165.4085 C.3     1  UNL1        0.0196
     20 O         140.4193  143.3422  157.4477 O.3     1  UNL1       -0.4240
     21 C         139.9588  144.7597  157.6164 C.3     1  UNL1        0.5086
     22 F         139.5272  145.5555  156.4203 F       1  UNL1       -0.1550
     23 F         139.9297  145.3815  158.9811 F       1  UNL1       -0.1550
     24 C         144.1682  140.2732  163.6243 C.3     1  UNL1        0.1212
     25 C         143.6466  140.1145  165.0217 C.ar    1  UNL1       -0.0023
     26 C         143.7861  138.7992  165.7294 C.ar    1  UNL1       -0.0026
     27 C         143.2646  138.6405  167.1268 C.ar    1  UNL1       -0.0003
     28 C         142.6035  139.7969  167.8165 C.ar    1  UNL1       -0.0000
     29 C         142.4640  141.1120  167.1089 C.ar    1  UNL1       -0.0003
     30 C         142.9855  141.2709  165.7114 C.ar    1  UNL1       -0.0024
     31 C         142.8460  142.5860  165.0037 C.ar    1  UNL1       -0.0003
     32 C         144.0324  143.4937  164.8669 C.ar    1  UNL1       -0.0000
     33 C         143.8929  144.8088  164.1593 C.ar    1  UNL1       -0.0000
     34 C         142.5669  145.2164  163.5884 C.ar    1  UNL1       -0.0000
     35 C         141.3805  144.3087  163.7252 C.ar    1  UNL1       -0.0000
     36 C         141.5201  142.9935  164.4329 C.ar    1  UNL1       -0.0000
@<TRIPOS>BOND
     1     1     2    1
     2     2     3   ar
     3     3    20    1
     4    20    21    1
     5    21    22    1
     6    21    23    1
     7     3     4   ar
     8     4     5   ar
     9     5     6   ar
    10     6     7   ar
    11     7     8    1
    12     8     9    2
    13     8    10   am
    14    10    24    1
    15    24    25    1
    16    25    26   ar
    17    26    27   ar
    18    27    28   ar
    19    28    29   ar
    20    29    30   ar
    21    30    31    1
    22    31    32   ar
    23    32    33   ar
    24    33    34   ar
    25    34    35   ar
    26    35    36   ar
    27    10    11    1
    28    11    12    1
    29    12    13    2
    30    12    14   am
    31    14    16    1
    32    16    17    1
    33    16    18    1
    34    16    19    1
    35     7     2   ar
    36    30    25   ar
    37    36    31   ar
    38    11     6    1
    39    14    15    1
