@<TRIPOS>MOLECULE
*****
 33 36 0 0 0
SMALL
GASTEIGER

@<TRIPOS>ATOM
      1 C         140.4184  142.5213  162.7960 C.ar    1  UNL1        0.0645
      2 C         139.6290  142.9834  163.9847 C.ar    1  UNL1        0.0835
      3 C         138.1438  143.1632  163.8748 C.ar    1  UNL1        0.1147
      4 N         137.4482  142.8810  162.5762 N.ar    1  UNL1       -0.2409
      5 C         138.2377  142.4189  161.3875 C.ar    1  UNL1        0.1002
      6 C         139.7228  142.2391  161.4974 C.ar    1  UNL1        0.0338
      7 N         146.3589  141.8019  163.2354 N.3     1  UNL1       -0.3221
      8 C         144.8738  141.9817  163.1255 C.3     1  UNL1        0.0542
      9 C         143.9536  140.8479  163.4685 C.3     1  UNL1        0.0369
     10 C         142.4685  141.0278  163.3587 C.3     1  UNL1        0.0922
     11 N         141.9036  142.3414  162.9058 N.pl3   1  UNL1       -0.3064
     12 C         142.8238  143.4752  162.5628 C.3     1  UNL1        0.0922
     13 C         144.3089  143.2954  162.6727 C.3     1  UNL1        0.0369
     14 H         146.5641  140.8552  163.5549 H       1  UNL1        0.1188
     15 H         146.7344  142.4750  163.9034 H       1  UNL1        0.1188
     16 C         140.5123  141.7770  160.3085 C.ar    1  UNL1        0.0044
     17 C         141.0628  142.7796  159.3381 C.ar    1  UNL1        0.0115
     18 C         141.8523  142.3175  158.1493 C.ar    1  UNL1        0.0585
     19 CL        142.4028  143.3200  157.1788 Cl      1  UNL1       -0.0822
     20 C         142.0912  140.8528  157.9309 C.ar    1  UNL1        0.0228
     21 C         141.5407  139.8502  158.9014 C.ar    1  UNL1        0.0585
     22 CL        141.7796  138.3856  158.6831 Cl      1  UNL1       -0.0822
     23 C         140.7512  140.3123  160.0902 C.ar    1  UNL1        0.0115
     24 N         140.3246  143.2656  165.2834 N.am    1  UNL1       -0.2782
     25 C         140.4622  142.1820  166.3114 C.2     1  UNL1        0.2496
     26 O         139.9043  140.8162  166.0409 O.2     1  UNL1       -0.2698
     27 H         140.6908  144.1620  165.4610 H       1  UNL1        0.1552
     28 C         141.1579  142.4643  167.6101 C.ar    1  UNL1        0.0537
     29 C         140.4236  143.1583  168.7188 C.ar    1  UNL1        0.0045
     30 C         141.1192  143.4406  170.0174 C.ar    1  UNL1        0.0001
     31 C         142.5489  143.0287  170.2074 C.ar    1  UNL1        0.0000
     32 C         143.2832  142.3347  169.0987 C.ar    1  UNL1        0.0001
     33 C         142.5876  142.0524  167.8001 C.ar    1  UNL1        0.0045
@<TRIPOS>BOND
     1     7     8    1
     2     8     9    1
     3     9    10    1
     4    10    11    1
     5    11     1    1
     6     1     2   ar
     7     2    24    1
     8    24    25   am
     9    25    26    2
    10    25    28    1
    11    28    29   ar
    12    29    30   ar
    13    30    31   ar
    14    31    32   ar
    15    32    33   ar
    16     2     3   ar
    17     3     4   ar
    18     4     5   ar
    19     5     6   ar
    20     6    16    1
    21    16    17   ar
    22    17    18   ar
    23    18    19    1
    24    18    20   ar
    25    20    21   ar
    26    21    22    1
    27    21    23   ar
    28    11    12    1
    29    12    13    1
    30    13     8    1
    31     6     1   ar
    32    23    16   ar
    33    33    28   ar
    34     7    14    1
    35     7    15    1
    36    24    27    1
@<TRIPOS>MOLECULE
*****
 33 36 0 0 0
SMALL
GASTEIGER

@<TRIPOS>ATOM
      1 C         140.3926  142.5263  162.7942 C.ar    1  UNL1        0.0645
      2 C         139.6109  142.9808  163.9910 C.ar    1  UNL1        0.0835
      3 C         138.1247  143.1579  163.8930 C.ar    1  UNL1        0.1147
      4 N         137.4201  142.8803  162.5982 N.ar    1  UNL1       -0.2409
      5 C         138.2018  142.4257  161.4014 C.ar    1  UNL1        0.1002
      6 C         139.6881  142.2487  161.4995 C.ar    1  UNL1        0.0338
      7 N         146.3378  141.8182  163.1863 N.3     1  UNL1       -0.3221
      8 C         144.8515  141.9952  163.0883 C.3     1  UNL1        0.0542
      9 C         143.9363  140.8586  163.4353 C.3     1  UNL1        0.0369
     10 C         142.4501  141.0356  163.3373 C.3     1  UNL1        0.0922
     11 N         141.8789  142.3492  162.8923 N.pl3   1  UNL1       -0.3064
     12 C         142.7941  143.4859  162.5453 C.3     1  UNL1        0.0922
     13 C         144.2804  143.3089  162.6433 C.3     1  UNL1        0.0369
     14 H         146.5473  140.8711  163.5017 H       1  UNL1        0.1188
     15 H         146.7170  142.4903  163.8533 H       1  UNL1        0.1188
     16 C         140.4698  141.7941  160.3026 C.ar    1  UNL1        0.0044
     17 C         140.7112  140.3311  160.0760 C.ar    1  UNL1        0.0115
     18 C         141.4929  139.8765  158.8792 C.ar    1  UNL1        0.0585
     19 CL        141.7344  138.4135  158.6526 Cl      1  UNL1       -0.0822
     20 C         142.0331  140.8849  157.9090 C.ar    1  UNL1        0.0228
     21 C         141.7916  142.3480  158.1357 C.ar    1  UNL1        0.0585
     22 CL        142.3319  143.3564  157.1655 Cl      1  UNL1       -0.0822
     23 C         141.0100  142.8025  159.3324 C.ar    1  UNL1        0.0115
     24 N         140.3155  143.2584  165.2858 N.am    1  UNL1       -0.2782
     25 C         140.4414  142.1773  166.3180 C.2     1  UNL1        0.2496
     26 O         139.8627  140.8186  166.0553 O.2     1  UNL1       -0.2698
     27 H         140.6953  144.1502  165.4582 H       1  UNL1        0.1552
     28 C         141.1460  142.4549  167.6128 C.ar    1  UNL1        0.0537
     29 C         140.4193  143.1445  168.7292 C.ar    1  UNL1        0.0045
     30 C         141.1238  143.4221  170.0240 C.ar    1  UNL1        0.0001
     31 C         142.5550  143.0102  170.2024 C.ar    1  UNL1        0.0000
     32 C         143.2817  142.3206  169.0860 C.ar    1  UNL1        0.0001
     33 C         142.5772  142.0430  167.7912 C.ar    1  UNL1        0.0045
@<TRIPOS>BOND
     1     7     8    1
     2     8     9    1
     3     9    10    1
     4    10    11    1
     5    11     1    1
     6     1     2   ar
     7     2    24    1
     8    24    25   am
     9    25    26    2
    10    25    28    1
    11    28    29   ar
    12    29    30   ar
    13    30    31   ar
    14    31    32   ar
    15    32    33   ar
    16     2     3   ar
    17     3     4   ar
    18     4     5   ar
    19     5     6   ar
    20     6    16    1
    21    16    17   ar
    22    17    18   ar
    23    18    19    1
    24    18    20   ar
    25    20    21   ar
    26    21    22    1
    27    21    23   ar
    28    11    12    1
    29    12    13    1
    30    13     8    1
    31     6     1   ar
    32    23    16   ar
    33    33    28   ar
    34     7    14    1
    35     7    15    1
    36    24    27    1
@<TRIPOS>MOLECULE
*****
 33 36 0 0 0
SMALL
GASTEIGER

@<TRIPOS>ATOM
      1 C         140.1176  139.9447  165.8657 C.ar    1  UNL1        0.0645
      2 C         139.3150  139.2408  164.8120 C.ar    1  UNL1        0.0835
      3 C         138.0500  138.5263  165.1852 C.ar    1  UNL1        0.1147
      4 N         137.5876  138.5157  166.6121 N.ar    1  UNL1       -0.2409
      5 C         138.3902  139.2196  167.6658 C.ar    1  UNL1        0.1002
      6 C         139.6552  139.9341  167.2926 C.ar    1  UNL1        0.0338
      7 N         145.1776  142.8026  164.3729 N.3     1  UNL1       -0.3221
      8 C         143.9126  142.0881  164.7461 C.3     1  UNL1        0.0542
      9 C         143.9481  140.6270  165.0835 C.3     1  UNL1        0.0369
     10 C         142.6831  139.9125  165.4567 C.3     1  UNL1        0.0922
     11 N         141.3826  140.6592  165.4925 N.pl3   1  UNL1       -0.3064
     12 C         141.3472  142.1203  165.1551 C.3     1  UNL1        0.0922
     13 C         142.6122  142.8347  164.7819 C.3     1  UNL1        0.0369
     14 H         145.9589  142.1473  164.4000 H       1  UNL1        0.1188
     15 H         145.3472  143.5612  165.0333 H       1  UNL1        0.1188
     16 C         140.4578  140.6380  168.3463 C.ar    1  UNL1        0.0044
     17 C         140.1836  142.0788  168.6604 C.ar    1  UNL1        0.0115
     18 C         140.9862  142.7827  169.7142 C.ar    1  UNL1        0.0585
     19 CL        140.7120  144.2236  170.0282 Cl      1  UNL1       -0.0822
     20 C         142.0631  142.0457  170.4539 C.ar    1  UNL1        0.0228
     21 C         142.3373  140.6048  170.1397 C.ar    1  UNL1        0.0585
     22 CL        143.4142  139.8678  170.8794 Cl      1  UNL1       -0.0822
     23 C         141.5347  139.9010  169.0860 C.ar    1  UNL1        0.0115
     24 N         139.7773  139.2514  163.3850 N.am    1  UNL1       -0.2782
     25 C         140.6576  138.1498  162.8737 C.2     1  UNL1        0.2496
     26 O         141.0756  137.0376  163.7893 O.2     1  UNL1       -0.2698
     27 H         139.5030  139.9814  162.7841 H       1  UNL1        0.1552
     28 C         141.1200  138.1603  161.4467 C.ar    1  UNL1        0.0537
     29 C         142.5148  137.7252  161.1071 C.ar    1  UNL1        0.0045
     30 C         142.9771  137.7358  159.6802 C.ar    1  UNL1        0.0001
     31 C         142.0448  138.1814  158.5930 C.ar    1  UNL1        0.0000
     32 C         140.6500  138.6165  158.9326 C.ar    1  UNL1        0.0001
     33 C         140.1877  138.6060  160.3595 C.ar    1  UNL1        0.0045
@<TRIPOS>BOND
     1     7     8    1
     2     8     9    1
     3     9    10    1
     4    10    11    1
     5    11     1    1
     6     1     2   ar
     7     2    24    1
     8    24    25   am
     9    25    26    2
    10    25    28    1
    11    28    29   ar
    12    29    30   ar
    13    30    31   ar
    14    31    32   ar
    15    32    33   ar
    16     2     3   ar
    17     3     4   ar
    18     4     5   ar
    19     5     6   ar
    20     6    16    1
    21    16    17   ar
    22    17    18   ar
    23    18    19    1
    24    18    20   ar
    25    20    21   ar
    26    21    22    1
    27    21    23   ar
    28    11    12    1
    29    12    13    1
    30    13     8    1
    31     6     1   ar
    32    23    16   ar
    33    33    28   ar
    34     7    14    1
    35     7    15    1
    36    24    27    1
@<TRIPOS>MOLECULE
*****
 33 36 0 0 0
SMALL
GASTEIGER

@<TRIPOS>ATOM
      1 C         140.1498  139.9925  165.8543 C.ar    1  UNL1        0.0645
      2 C         139.3510  139.2991  164.7907 C.ar    1  UNL1        0.0835
      3 C         138.0840  138.5820  165.1520 C.ar    1  UNL1        0.1147
      4 N         137.6159  138.5583  166.5769 N.ar    1  UNL1       -0.2409
      5 C         138.4147  139.2516  167.6404 C.ar    1  UNL1        0.1002
      6 C         139.6817  139.9687  167.2791 C.ar    1  UNL1        0.0338
      7 N         145.2178  142.8608  164.4090 N.3     1  UNL1       -0.3221
      8 C         143.9508  142.1437  164.7703 C.3     1  UNL1        0.0542
      9 C         142.6543  142.8957  164.8302 C.3     1  UNL1        0.0369
     10 C         141.3873  142.1786  165.1915 C.3     1  UNL1        0.0922
     11 N         141.4168  140.7095  165.4929 N.pl3   1  UNL1       -0.3064
     12 C         142.7133  139.9576  165.4331 C.3     1  UNL1        0.0922
     13 C         143.9803  140.6746  165.0718 C.3     1  UNL1        0.0369
     14 H         145.0141  143.8455  164.2377 H       1  UNL1        0.1188
     15 H         145.6159  142.4445  163.5673 H       1  UNL1        0.1188
     16 C         140.4805  140.6620  168.3427 C.ar    1  UNL1        0.0044
     17 C         141.5505  139.9159  169.0832 C.ar    1  UNL1        0.0115
     18 C         142.3494  140.6093  170.1468 C.ar    1  UNL1        0.0585
     19 CL        143.4194  139.8632  170.8872 Cl      1  UNL1       -0.0822
     20 C         142.0781  142.0487  170.4699 C.ar    1  UNL1        0.0228
     21 C         141.0080  142.7948  169.7294 C.ar    1  UNL1        0.0585
     22 CL        140.7367  144.2343  170.0525 Cl      1  UNL1       -0.0822
     23 C         140.2092  142.1015  168.6658 C.ar    1  UNL1        0.0115
     24 N         139.8192  139.3229  163.3658 N.am    1  UNL1       -0.2782
     25 C         140.5957  138.1652  162.8121 C.2     1  UNL1        0.2496
     26 O         140.9042  136.9837  163.6833 O.2     1  UNL1       -0.2698
     27 H         139.6167  140.0983  162.7940 H       1  UNL1        0.1552
     28 C         141.0639  138.1889  161.3872 C.ar    1  UNL1        0.0537
     29 C         140.1074  138.5496  160.2894 C.ar    1  UNL1        0.0045
     30 C         140.5755  138.5733  158.8646 C.ar    1  UNL1        0.0001
     31 C         142.0000  138.2364  158.5374 C.ar    1  UNL1        0.0000
     32 C         142.9565  137.8758  159.6352 C.ar    1  UNL1        0.0001
     33 C         142.4884  137.8520  161.0601 C.ar    1  UNL1        0.0045
@<TRIPOS>BOND
     1     7     8    1
     2     8     9    1
     3     9    10    1
     4    10    11    1
     5    11     1    1
     6     1     2   ar
     7     2    24    1
     8    24    25   am
     9    25    26    2
    10    25    28    1
    11    28    29   ar
    12    29    30   ar
    13    30    31   ar
    14    31    32   ar
    15    32    33   ar
    16     2     3   ar
    17     3     4   ar
    18     4     5   ar
    19     5     6   ar
    20     6    16    1
    21    16    17   ar
    22    17    18   ar
    23    18    19    1
    24    18    20   ar
    25    20    21   ar
    26    21    22    1
    27    21    23   ar
    28    11    12    1
    29    12    13    1
    30    13     8    1
    31     6     1   ar
    32    23    16   ar
    33    33    28   ar
    34     7    14    1
    35     7    15    1
    36    24    27    1
@<TRIPOS>MOLECULE
*****
 33 36 0 0 0
SMALL
GASTEIGER

@<TRIPOS>ATOM
      1 C         142.7498  141.3780  163.0142 C.ar    1  UNL1        0.0645
      2 C         143.5307  140.9219  164.2109 C.ar    1  UNL1        0.0835
      3 C         145.0302  140.9510  164.1836 C.ar    1  UNL1        0.1147
      4 N         145.7488  141.4362  162.9597 N.ar    1  UNL1       -0.2409
      5 C         144.9679  141.8922  161.7629 C.ar    1  UNL1        0.1002
      6 C         143.4684  141.8632  161.7902 C.ar    1  UNL1        0.0338
      7 N         136.7519  141.2617  163.1233 N.3     1  UNL1       -0.3221
      8 C         138.2514  141.2908  163.0960 C.3     1  UNL1        0.0542
      9 C         139.0146  140.1174  162.5569 C.3     1  UNL1        0.0369
     10 C         140.5141  140.1465  162.5297 C.3     1  UNL1        0.0922
     11 N         141.2504  141.3489  163.0415 N.pl3   1  UNL1       -0.3064
     12 C         140.4871  142.5223  163.5806 C.3     1  UNL1        0.0922
     13 C         138.9877  142.4932  163.6078 C.3     1  UNL1        0.0369
     14 H         136.4220  140.3757  162.7405 H       1  UNL1        0.1188
     15 H         136.3867  142.0314  162.5625 H       1  UNL1        0.1188
     16 C         142.6875  142.3193  160.5934 C.ar    1  UNL1        0.0044
     17 C         142.2319  143.7449  160.4940 C.ar    1  UNL1        0.0115
     18 C         141.4510  144.2011  159.2972 C.ar    1  UNL1        0.0585
     19 CL        140.9954  145.6267  159.1978 Cl      1  UNL1       -0.0822
     20 C         141.1258  143.2315  158.1999 C.ar    1  UNL1        0.0228
     21 C         141.5815  141.8058  158.2993 C.ar    1  UNL1        0.0585
     22 CL        141.2563  140.8362  157.2020 Cl      1  UNL1       -0.0822
     23 C         142.3624  141.3497  159.4961 C.ar    1  UNL1        0.0115
     24 N         142.8121  140.4367  165.4350 N.am    1  UNL1       -0.2782
     25 C         142.6984  141.3240  166.6390 C.2     1  UNL1        0.2496
     26 O         143.3032  142.6965  166.6191 O.2     1  UNL1       -0.2698
     27 H         142.4151  139.5359  165.4481 H       1  UNL1        0.1552
     28 C         141.9798  140.8388  167.8631 C.ar    1  UNL1        0.0537
     29 C         140.6134  141.3651  168.1886 C.ar    1  UNL1        0.0045
     30 C         139.8948  140.8799  169.4126 C.ar    1  UNL1        0.0001
     31 C         140.5426  139.8685  170.3111 C.ar    1  UNL1        0.0000
     32 C         141.9090  139.3422  169.9856 C.ar    1  UNL1        0.0001
     33 C         142.6276  139.8274  168.7616 C.ar    1  UNL1        0.0045
@<TRIPOS>BOND
     1     7     8    1
     2     8     9    1
     3     9    10    1
     4    10    11    1
     5    11     1    1
     6     1     2   ar
     7     2    24    1
     8    24    25   am
     9    25    26    2
    10    25    28    1
    11    28    29   ar
    12    29    30   ar
    13    30    31   ar
    14    31    32   ar
    15    32    33   ar
    16     2     3   ar
    17     3     4   ar
    18     4     5   ar
    19     5     6   ar
    20     6    16    1
    21    16    17   ar
    22    17    18   ar
    23    18    19    1
    24    18    20   ar
    25    20    21   ar
    26    21    22    1
    27    21    23   ar
    28    11    12    1
    29    12    13    1
    30    13     8    1
    31     6     1   ar
    32    23    16   ar
    33    33    28   ar
    34     7    14    1
    35     7    15    1
    36    24    27    1
@<TRIPOS>MOLECULE
*****
 33 36 0 0 0
SMALL
GASTEIGER

@<TRIPOS>ATOM
      1 C         140.4936  143.1689  163.3571 C.ar    1  UNL1        0.0645
      2 C         139.8200  143.2332  164.6957 C.ar    1  UNL1        0.0835
      3 C         138.3623  143.5749  164.7862 C.ar    1  UNL1        0.1147
      4 N         137.5781  143.8523  163.5380 N.ar    1  UNL1       -0.2409
      5 C         138.2517  143.7880  162.1993 C.ar    1  UNL1        0.1002
      6 C         139.7095  143.4463  162.1089 C.ar    1  UNL1        0.0338
      7 N         146.3247  141.8023  162.9952 N.3     1  UNL1       -0.3221
      8 C         144.8669  142.1440  163.0857 C.3     1  UNL1        0.0542
      9 C         143.8461  141.0509  163.2000 C.3     1  UNL1        0.0369
     10 C         142.3884  141.3926  163.2905 C.3     1  UNL1        0.0922
     11 N         141.9514  142.8273  163.2666 N.pl3   1  UNL1       -0.3064
     12 C         142.9722  143.9203  163.1523 C.3     1  UNL1        0.0922
     13 C         144.4300  143.5787  163.0618 C.3     1  UNL1        0.0369
     14 H         146.4390  140.7892  163.0259 H       1  UNL1        0.1188
     15 H         146.8221  142.2245  163.7793 H       1  UNL1        0.1188
     16 C         140.3830  143.3820  160.7701 C.ar    1  UNL1        0.0044
     17 C         140.8279  144.6444  160.0929 C.ar    1  UNL1        0.0115
     18 C         141.5015  144.5801  158.7542 C.ar    1  UNL1        0.0585
     19 CL        141.9463  145.8424  158.0770 Cl      1  UNL1       -0.0822
     20 C         141.7302  143.2534  158.0926 C.ar    1  UNL1        0.0228
     21 C         141.2853  141.9910  158.7698 C.ar    1  UNL1        0.0585
     22 CL        141.5140  140.6644  158.1083 Cl      1  UNL1       -0.0822
     23 C         140.6118  142.0554  160.1085 C.ar    1  UNL1        0.0115
     24 N         140.6042  142.9558  165.9441 N.am    1  UNL1       -0.2782
     25 C         140.6713  141.5617  166.4934 C.2     1  UNL1        0.2496
     26 O         139.9543  140.4449  165.7944 O.2     1  UNL1       -0.2698
     27 H         141.0748  143.6889  166.4028 H       1  UNL1        0.1552
     28 C         141.4555  141.2843  167.7417 C.ar    1  UNL1        0.0537
     29 C         141.1344  140.0806  168.5771 C.ar    1  UNL1        0.0045
     30 C         141.9185  139.8032  169.8254 C.ar    1  UNL1        0.0001
     31 C         143.0237  140.7295  170.2382 C.ar    1  UNL1        0.0000
     32 C         143.3448  141.9332  169.4027 C.ar    1  UNL1        0.0001
     33 C         142.5607  142.2106  168.1544 C.ar    1  UNL1        0.0045
@<TRIPOS>BOND
     1     7     8    1
     2     8     9    1
     3     9    10    1
     4    10    11    1
     5    11     1    1
     6     1     2   ar
     7     2    24    1
     8    24    25   am
     9    25    26    2
    10    25    28    1
    11    28    29   ar
    12    29    30   ar
    13    30    31   ar
    14    31    32   ar
    15    32    33   ar
    16     2     3   ar
    17     3     4   ar
    18     4     5   ar
    19     5     6   ar
    20     6    16    1
    21    16    17   ar
    22    17    18   ar
    23    18    19    1
    24    18    20   ar
    25    20    21   ar
    26    21    22    1
    27    21    23   ar
    28    11    12    1
    29    12    13    1
    30    13     8    1
    31     6     1   ar
    32    23    16   ar
    33    33    28   ar
    34     7    14    1
    35     7    15    1
    36    24    27    1
@<TRIPOS>MOLECULE
*****
 33 36 0 0 0
SMALL
GASTEIGER

@<TRIPOS>ATOM
      1 C         141.9938  139.9286  163.2887 C.ar    1  UNL1        0.0645
      2 C         141.8970  139.2805  164.6379 C.ar    1  UNL1        0.0835
      3 C         141.4226  137.8624  164.7565 C.ar    1  UNL1        0.1147
      4 N         141.0449  137.0925  163.5259 N.ar    1  UNL1       -0.2409
      5 C         141.1417  137.7406  162.1766 C.ar    1  UNL1        0.1002
      6 C         141.6162  139.1586  162.0580 C.ar    1  UNL1        0.0338
      7 N         143.8915  145.6007  162.8142 N.3     1  UNL1       -0.3221
      8 C         143.4171  144.1827  162.9328 C.3     1  UNL1        0.0542
      9 C         141.9511  143.8901  163.0557 C.3     1  UNL1        0.0369
     10 C         141.4767  142.4721  163.1744 C.3     1  UNL1        0.0922
     11 N         142.4682  141.3466  163.1700 N.pl3   1  UNL1       -0.3064
     12 C         143.9342  141.6392  163.0471 C.3     1  UNL1        0.0922
     13 C         144.4087  143.0572  162.9285 C.3     1  UNL1        0.0369
     14 H         143.0894  146.2304  162.8344 H       1  UNL1        0.1188
     15 H         144.3942  145.7186  161.9345 H       1  UNL1        0.1188
     16 C         141.7129  139.8067  160.7087 C.ar    1  UNL1        0.0044
     17 C         143.0193  139.8129  159.9716 C.ar    1  UNL1        0.0115
     18 C         143.1161  140.4610  158.6222 C.ar    1  UNL1        0.0585
     19 CL        144.4224  140.4672  157.8851 Cl      1  UNL1       -0.0822
     20 C         141.9064  141.1029  158.0100 C.ar    1  UNL1        0.0228
     21 C         140.6000  141.0967  158.7472 C.ar    1  UNL1        0.0585
     22 CL        139.3904  141.7386  158.1350 Cl      1  UNL1       -0.0822
     23 C         140.5033  140.4486  160.0965 C.ar    1  UNL1        0.0115
     24 N         142.2747  140.0504  165.8687 N.am    1  UNL1       -0.2782
     25 C         141.2499  140.8903  166.5718 C.2     1  UNL1        0.2496
     26 O         139.8475  140.9603  166.0443 O.2     1  UNL1       -0.2698
     27 H         143.1951  140.0045  166.2149 H       1  UNL1        0.1552
     28 C         141.6276  141.6602  167.8025 C.ar    1  UNL1        0.0537
     29 C         140.6312  142.5761  168.4494 C.ar    1  UNL1        0.0045
     30 C         141.0088  143.3461  169.6800 C.ar    1  UNL1        0.0001
     31 C         142.3828  143.2001  170.2639 C.ar    1  UNL1        0.0000
     32 C         143.3791  142.2841  169.6171 C.ar    1  UNL1        0.0001
     33 C         143.0015  141.5142  168.3864 C.ar    1  UNL1        0.0045
@<TRIPOS>BOND
     1     7     8    1
     2     8     9    1
     3     9    10    1
     4    10    11    1
     5    11     1    1
     6     1     2   ar
     7     2    24    1
     8    24    25   am
     9    25    26    2
    10    25    28    1
    11    28    29   ar
    12    29    30   ar
    13    30    31   ar
    14    31    32   ar
    15    32    33   ar
    16     2     3   ar
    17     3     4   ar
    18     4     5   ar
    19     5     6   ar
    20     6    16    1
    21    16    17   ar
    22    17    18   ar
    23    18    19    1
    24    18    20   ar
    25    20    21   ar
    26    21    22    1
    27    21    23   ar
    28    11    12    1
    29    12    13    1
    30    13     8    1
    31     6     1   ar
    32    23    16   ar
    33    33    28   ar
    34     7    14    1
    35     7    15    1
    36    24    27    1
@<TRIPOS>MOLECULE
*****
 33 36 0 0 0
SMALL
GASTEIGER

@<TRIPOS>ATOM
      1 C         142.8928  142.4630  163.0949 C.ar    1  UNL1        0.0645
      2 C         143.9037  142.7295  162.0193 C.ar    1  UNL1        0.0835
      3 C         145.2872  142.1612  162.1328 C.ar    1  UNL1        0.1147
      4 N         145.6598  141.3264  163.3220 N.ar    1  UNL1       -0.2409
      5 C         144.6490  141.0599  164.3976 C.ar    1  UNL1        0.1002
      6 C         143.2655  141.6282  164.2841 C.ar    1  UNL1        0.0338
      7 N         137.3587  144.7363  162.6408 N.3     1  UNL1       -0.3221
      8 C         138.7422  144.1680  162.7544 C.3     1  UNL1        0.0542
      9 C         139.0643  142.8463  162.1224 C.3     1  UNL1        0.0369
     10 C         140.4478  142.2780  162.2360 C.3     1  UNL1        0.0922
     11 N         141.5093  143.0313  162.9814 N.pl3   1  UNL1       -0.3064
     12 C         141.1872  144.3530  163.6133 C.3     1  UNL1        0.0922
     13 C         139.8037  144.9213  163.4998 C.3     1  UNL1        0.0369
     14 H         136.7715  144.0970  162.1053 H       1  UNL1        0.1188
     15 H         137.3996  145.6385  162.1667 H       1  UNL1        0.1188
     16 C         142.2546  141.3617  165.3598 C.ar    1  UNL1        0.0044
     17 C         141.2639  140.2470  165.1986 C.ar    1  UNL1        0.0115
     18 C         140.2530  139.9804  166.2743 C.ar    1  UNL1        0.0585
     19 CL        139.2624  138.8657  166.1130 Cl      1  UNL1       -0.0822
     20 C         140.2328  140.8286  167.5113 C.ar    1  UNL1        0.0228
     21 C         141.2235  141.9434  167.6725 C.ar    1  UNL1        0.0585
     22 CL        141.2033  142.7916  168.9095 Cl      1  UNL1       -0.0822
     23 C         142.2344  142.2099  166.5968 C.ar    1  UNL1        0.0115
     24 N         143.5311  143.5643  160.8300 N.am    1  UNL1       -0.2782
     25 C         142.9355  142.9161  159.6155 C.2     1  UNL1        0.2496
     26 O         142.7125  141.4330  159.5902 O.2     1  UNL1       -0.2698
     27 H         143.6774  144.5378  160.8466 H       1  UNL1        0.1552
     28 C         142.5629  143.7509  158.4263 C.ar    1  UNL1        0.0537
     29 C         142.9802  143.3243  157.0501 C.ar    1  UNL1        0.0045
     30 C         142.6076  144.1591  155.8609 C.ar    1  UNL1        0.0001
     31 C         141.8177  145.4205  156.0478 C.ar    1  UNL1        0.0000
     32 C         141.4004  145.8471  157.4240 C.ar    1  UNL1        0.0001
     33 C         141.7730  145.0123  158.6132 C.ar    1  UNL1        0.0045
@<TRIPOS>BOND
     1     7     8    1
     2     8     9    1
     3     9    10    1
     4    10    11    1
     5    11     1    1
     6     1     2   ar
     7     2    24    1
     8    24    25   am
     9    25    26    2
    10    25    28    1
    11    28    29   ar
    12    29    30   ar
    13    30    31   ar
    14    31    32   ar
    15    32    33   ar
    16     2     3   ar
    17     3     4   ar
    18     4     5   ar
    19     5     6   ar
    20     6    16    1
    21    16    17   ar
    22    17    18   ar
    23    18    19    1
    24    18    20   ar
    25    20    21   ar
    26    21    22    1
    27    21    23   ar
    28    11    12    1
    29    12    13    1
    30    13     8    1
    31     6     1   ar
    32    23    16   ar
    33    33    28   ar
    34     7    14    1
    35     7    15    1
    36    24    27    1
@<TRIPOS>MOLECULE
*****
 33 36 0 0 0
SMALL
GASTEIGER

@<TRIPOS>ATOM
      1 C         140.8062  140.2356  162.7201 C.ar    1  UNL1        0.0645
      2 C         140.4537  139.4500  163.9483 C.ar    1  UNL1        0.0835
      3 C         140.5079  137.9512  163.9212 C.ar    1  UNL1        0.1147
      4 N         140.9145  137.2380  162.6658 N.ar    1  UNL1       -0.2409
      5 C         141.2670  138.0237  161.4376 C.ar    1  UNL1        0.1002
      6 C         141.2128  139.5224  161.4648 C.ar    1  UNL1        0.0338
      7 N         140.5894  146.2307  162.8288 N.3     1  UNL1       -0.3221
      8 C         140.6436  144.7319  162.8016 C.3     1  UNL1        0.0542
      9 C         141.8745  144.0172  163.2750 C.3     1  UNL1        0.0369
     10 C         141.9286  142.5184  163.2478 C.3     1  UNL1        0.0922
     11 N         140.7520  141.7344  162.7473 N.pl3   1  UNL1       -0.3064
     12 C         139.5211  142.4491  162.2739 C.3     1  UNL1        0.0922
     13 C         139.4669  143.9478  162.3011 C.3     1  UNL1        0.0369
     14 H         141.4683  146.5961  163.1954 H       1  UNL1        0.1188
     15 H         139.8200  146.5323  163.4266 H       1  UNL1        0.1188
     16 C         141.5653  140.3080  160.2365 C.ar    1  UNL1        0.0044
     17 C         142.9475  140.8678  160.0752 C.ar    1  UNL1        0.0115
     18 C         143.3000  141.6534  158.8469 C.ar    1  UNL1        0.0585
     19 CL        144.6822  142.2131  158.6856 Cl      1  UNL1       -0.0822
     20 C         142.2702  141.8792  157.7799 C.ar    1  UNL1        0.0228
     21 C         140.8879  141.3194  157.9412 C.ar    1  UNL1        0.0585
     22 CL        139.8580  141.5453  156.8742 Cl      1  UNL1       -0.0822
     23 C         140.5354  140.5339  159.1695 C.ar    1  UNL1        0.0115
     24 N         140.0470  140.1631  165.2038 N.am    1  UNL1       -0.2782
     25 C         140.9998  140.2503  166.3590 C.2     1  UNL1        0.2496
     26 O         142.3592  139.6243  166.2589 O.2     1  UNL1       -0.2698
     27 H         139.1548  140.5740  165.2695 H       1  UNL1        0.1552
     28 C         140.5931  140.9634  167.6145 C.ar    1  UNL1        0.0537
     29 C         140.9132  142.4186  167.7877 C.ar    1  UNL1        0.0045
     30 C         140.5066  143.1318  169.0430 C.ar    1  UNL1        0.0001
     31 C         139.7799  142.3897  170.1252 C.ar    1  UNL1        0.0000
     32 C         139.4598  140.9345  169.9521 C.ar    1  UNL1        0.0001
     33 C         139.8664  140.2214  168.6967 C.ar    1  UNL1        0.0045
@<TRIPOS>BOND
     1     7     8    1
     2     8     9    1
     3     9    10    1
     4    10    11    1
     5    11     1    1
     6     1     2   ar
     7     2    24    1
     8    24    25   am
     9    25    26    2
    10    25    28    1
    11    28    29   ar
    12    29    30   ar
    13    30    31   ar
    14    31    32   ar
    15    32    33   ar
    16     2     3   ar
    17     3     4   ar
    18     4     5   ar
    19     5     6   ar
    20     6    16    1
    21    16    17   ar
    22    17    18   ar
    23    18    19    1
    24    18    20   ar
    25    20    21   ar
    26    21    22    1
    27    21    23   ar
    28    11    12    1
    29    12    13    1
    30    13     8    1
    31     6     1   ar
    32    23    16   ar
    33    33    28   ar
    34     7    14    1
    35     7    15    1
    36    24    27    1
