@<TRIPOS>MOLECULE
*****
 32 35 0 0 0
SMALL
GASTEIGER

@<TRIPOS>ATOM
      1 N         139.1255  139.7051  162.6999 N.3     1  UNL1       -0.2647
      2 C         140.4683  139.6898  162.0317 C.3     1  UNL1        0.1037
      3 C         140.7712  140.6667  160.9346 C.3     1  UNL1        0.1470
      4 C         141.0741  141.6437  159.8373 C.3     1  UNL1        0.1035
      5 N         140.0342  142.6360  159.4084 N.3     1  UNL1       -0.2673
      6 C         138.6913  142.6513  160.0767 C.3     1  UNL1        0.1035
      7 C         138.3884  141.6743  161.1739 C.3     1  UNL1        0.1470
      8 C         138.0855  140.6974  162.2710 C.3     1  UNL1        0.1037
      9 O         139.7312  141.6590  160.5056 O.3     1  UNL1       -0.3530
     10 C         138.8225  138.7281  163.7972 C.3     1  UNL1        0.0993
     11 C         139.4514  139.9049  168.0948 C.ar    1  UNL1        0.0684
     12 C         140.5029  140.2145  167.0709 C.ar    1  UNL1        0.0100
     13 C         140.2933  139.8222  165.6383 C.ar    1  UNL1       -0.0022
     14 C         139.0322  139.1204  165.2297 C.ar    1  UNL1       -0.0061
     15 C         137.9807  138.8108  166.2537 C.ar    1  UNL1       -0.0022
     16 C         138.1903  139.2030  167.6862 C.ar    1  UNL1        0.0100
     17 N         139.8708  140.6894  170.9599 N.1     1  UNL1       -0.1908
     18 C         139.6611  140.2972  169.5273 C.1     1  UNL1        0.1004
     19 C         140.3370  143.6129  158.3113 C.3     1  UNL1        0.0913
     20 C         140.4605  145.0752  158.6221 C.3     1  UNL1        0.1087
     21 N         141.3428  145.5312  159.7461 N.3     1  UNL1       -0.1780
     22 H         141.3263  146.5511  159.7383 H       1  UNL1        0.1488
     23 S         141.0461  145.1040  161.1530 S.O2    1  UNL1        0.0603
     24 O         139.6788  145.7119  161.0492 O.2     1  UNL1       -0.1530
     25 O         142.4135  144.4962  161.2568 O.2     1  UNL1       -0.1530
     26 C         140.7495  144.6768  162.5600 C.ar    1  UNL1        0.1221
     27 C         139.4791  145.1167  163.2253 C.ar    1  UNL1        0.0222
     28 C         139.1824  144.6895  164.6322 C.ar    1  UNL1        0.0310
     29 C         140.1561  143.8225  165.3739 C.ar    1  UNL1        0.1402
     30 F         139.8594  143.3953  166.7808 F       1  UNL1       -0.2042
     31 C         141.4265  143.3826  164.7086 C.ar    1  UNL1        0.0310
     32 C         141.7232  143.8098  163.3017 C.ar    1  UNL1        0.0222
@<TRIPOS>BOND
     1    17    18    3
     2    18    11    1
     3    11    12   ar
     4    12    13   ar
     5    13    14   ar
     6    14    10    1
     7    10     1    1
     8     1     2    1
     9     2     3    1
    10     3     4    1
    11     4     5    1
    12     5    19    1
    13    19    20    1
    14    20    21    1
    15    21    23    1
    16    23    24    2
    17    23    25    2
    18    23    26    1
    19    26    27   ar
    20    27    28   ar
    21    28    29   ar
    22    29    30    1
    23    29    31   ar
    24    31    32   ar
    25     5     6    1
    26     6     7    1
    27     7     8    1
    28     7     9    1
    29    14    15   ar
    30    15    16   ar
    31    16    11   ar
    32     8     1    1
    33     9     3    1
    34    32    26   ar
    35    21    22    1
@<TRIPOS>MOLECULE
*****
 32 35 0 0 0
SMALL
GASTEIGER

@<TRIPOS>ATOM
      1 N         138.8768  139.8372  163.7572 N.3     1  UNL1       -0.2647
      2 C         140.0453  139.6176  162.8428 C.3     1  UNL1        0.1037
      3 C         140.2813  140.5486  161.6906 C.3     1  UNL1        0.1470
      4 C         140.5173  141.4797  160.5384 C.3     1  UNL1        0.1035
      5 N         139.5848  142.6302  160.3006 N.3     1  UNL1       -0.2673
      6 C         138.4162  142.8498  161.2152 C.3     1  UNL1        0.1035
      7 C         138.1802  141.9188  162.3673 C.3     1  UNL1        0.1470
      8 C         137.9442  140.9878  163.5195 C.3     1  UNL1        0.1037
      9 O         139.3487  141.6992  161.4529 O.3     1  UNL1       -0.3530
     10 C         138.6408  138.9062  164.9094 C.3     1  UNL1        0.0993
     11 C         139.8387  140.1281  169.0714 C.ar    1  UNL1        0.0684
     12 C         140.8089  140.2778  167.9373 C.ar    1  UNL1        0.0100
     13 C         140.4096  139.8705  166.5499 C.ar    1  UNL1       -0.0022
     14 C         139.0401  139.3135  166.2967 C.ar    1  UNL1       -0.0061
     15 C         138.0698  139.1638  167.4309 C.ar    1  UNL1       -0.0022
     16 C         138.4691  139.5711  168.8182 C.ar    1  UNL1        0.0100
     17 N         140.6373  140.9428  171.8460 N.1     1  UNL1       -0.1908
     18 C         140.2380  140.5354  170.4587 C.1     1  UNL1        0.1004
     19 C         139.8207  143.5612  159.1485 C.3     1  UNL1        0.0913
     20 C         140.1817  144.9945  159.4042 C.3     1  UNL1        0.1087
     21 N         141.4974  145.3348  160.0390 N.3     1  UNL1       -0.1780
     22 H         141.5174  146.3486  160.1499 H       1  UNL1        0.1488
     23 S         141.8627  144.7463  161.3695 S.O2    1  UNL1        0.0603
     24 O         143.0073  144.0159  160.7321 O.2     1  UNL1       -0.1530
     25 O         140.7180  145.4768  162.0068 O.2     1  UNL1       -0.1530
     26 C         142.2279  144.1578  162.7000 C.ar    1  UNL1        0.1221
     27 C         141.1520  143.6783  163.6287 C.ar    1  UNL1        0.0222
     28 C         141.5171  143.0898  164.9593 C.ar    1  UNL1        0.0310
     29 C         142.9582  142.9809  165.3611 C.ar    1  UNL1        0.1402
     30 F         143.3234  142.3924  166.6916 F       1  UNL1       -0.2042
     31 C         144.0341  143.4604  164.4323 C.ar    1  UNL1        0.0310
     32 C         143.6689  144.0489  163.1018 C.ar    1  UNL1        0.0222
@<TRIPOS>BOND
     1    17    18    3
     2    18    11    1
     3    11    12   ar
     4    12    13   ar
     5    13    14   ar
     6    14    10    1
     7    10     1    1
     8     1     2    1
     9     2     3    1
    10     3     4    1
    11     4     5    1
    12     5    19    1
    13    19    20    1
    14    20    21    1
    15    21    23    1
    16    23    24    2
    17    23    25    2
    18    23    26    1
    19    26    27   ar
    20    27    28   ar
    21    28    29   ar
    22    29    30    1
    23    29    31   ar
    24    31    32   ar
    25     5     6    1
    26     6     7    1
    27     7     8    1
    28     7     9    1
    29    14    15   ar
    30    15    16   ar
    31    16    11   ar
    32     8     1    1
    33     9     3    1
    34    32    26   ar
    35    21    22    1
@<TRIPOS>MOLECULE
*****
 32 35 0 0 0
SMALL
GASTEIGER

@<TRIPOS>ATOM
      1 N         142.9753  141.3358  164.1998 N.3     1  UNL1       -0.2647
      2 C         142.5555  139.8961  164.1698 C.3     1  UNL1        0.1037
      3 C         141.9620  139.3139  162.9213 C.3     1  UNL1        0.1470
      4 C         141.3685  138.7315  161.6728 C.3     1  UNL1        0.1035
      5 N         141.1948  139.5890  160.4543 N.3     1  UNL1       -0.2673
      6 C         141.6147  141.0288  160.4844 C.3     1  UNL1        0.1035
      7 C         142.2082  141.6110  161.7329 C.3     1  UNL1        0.1470
      8 C         142.8016  142.1933  162.9813 C.3     1  UNL1        0.1037
      9 O         141.7884  140.1713  161.7028 O.3     1  UNL1       -0.3530
     10 C         143.5688  141.9182  165.4483 C.3     1  UNL1        0.0993
     11 C         140.9362  142.8104  168.9871 C.ar    1  UNL1        0.0684
     12 C         140.3453  142.7471  167.6098 C.ar    1  UNL1        0.0100
     13 C         141.2229  142.4497  166.4301 C.ar    1  UNL1       -0.0022
     14 C         142.6913  142.2156  166.6278 C.ar    1  UNL1       -0.0061
     15 C         143.2821  142.2789  168.0052 C.ar    1  UNL1       -0.0022
     16 C         142.4045  142.5763  169.1847 C.ar    1  UNL1        0.0100
     17 N         139.1810  143.4052  171.3462 N.1     1  UNL1       -0.1908
     18 C         140.0586  143.1078  170.1666 C.1     1  UNL1        0.1004
     19 C         140.6014  139.0067  159.2059 C.3     1  UNL1        0.0913
     20 C         139.2616  139.4770  158.7223 C.3     1  UNL1        0.1087
     21 N         138.0878  139.4854  159.6561 N.3     1  UNL1       -0.1780
     22 H         138.0364  138.5559  160.0728 H       1  UNL1        0.1488
     23 S         138.0357  140.4701  160.7864 S.O2    1  UNL1        0.0603
     24 O         137.8668  139.3425  161.7610 O.2     1  UNL1       -0.1530
     25 O         138.2045  141.5978  159.8118 O.2     1  UNL1       -0.1530
     26 C         137.9836  141.4550  161.9167 C.ar    1  UNL1        0.1221
     27 C         138.1224  142.9226  161.6397 C.ar    1  UNL1        0.0222
     28 C         138.0704  143.9074  162.7699 C.ar    1  UNL1        0.0310
     29 C         137.8795  143.4245  164.1771 C.ar    1  UNL1        0.1402
     30 F         137.8274  144.4093  165.3074 F       1  UNL1       -0.2042
     31 C         137.7406  141.9569  164.4542 C.ar    1  UNL1        0.0310
     32 C         137.7927  140.9721  163.3239 C.ar    1  UNL1        0.0222
@<TRIPOS>BOND
     1    17    18    3
     2    18    11    1
     3    11    12   ar
     4    12    13   ar
     5    13    14   ar
     6    14    10    1
     7    10     1    1
     8     1     2    1
     9     2     3    1
    10     3     4    1
    11     4     5    1
    12     5    19    1
    13    19    20    1
    14    20    21    1
    15    21    23    1
    16    23    24    2
    17    23    25    2
    18    23    26    1
    19    26    27   ar
    20    27    28   ar
    21    28    29   ar
    22    29    30    1
    23    29    31   ar
    24    31    32   ar
    25     5     6    1
    26     6     7    1
    27     7     8    1
    28     7     9    1
    29    14    15   ar
    30    15    16   ar
    31    16    11   ar
    32     8     1    1
    33     9     3    1
    34    32    26   ar
    35    21    22    1
@<TRIPOS>MOLECULE
*****
 32 35 0 0 0
SMALL
GASTEIGER

@<TRIPOS>ATOM
      1 N         142.5954  138.6126  164.9494 N.3     1  UNL1       -0.2647
      2 C         143.0298  139.5850  163.8932 C.3     1  UNL1        0.1037
      3 C         142.3243  139.6197  162.5700 C.3     1  UNL1        0.1470
      4 C         141.6187  139.6545  161.2467 C.3     1  UNL1        0.1035
      5 N         140.4786  138.7169  160.9797 N.3     1  UNL1       -0.2673
      6 C         140.0442  137.7445  162.0361 C.3     1  UNL1        0.1035
      7 C         140.7498  137.7097  163.3593 C.3     1  UNL1        0.1470
      8 C         141.4554  137.6750  164.6825 C.3     1  UNL1        0.1037
      9 O         141.1842  138.6821  162.3030 O.3     1  UNL1       -0.3530
     10 C         143.3010  138.5778  166.2727 C.3     1  UNL1        0.0993
     11 C         141.5691  140.7637  169.8043 C.ar    1  UNL1        0.0684
     12 C         141.3773  141.3059  168.4190 C.ar    1  UNL1        0.0100
     13 C         141.9546  140.5773  167.2417 C.ar    1  UNL1       -0.0022
     14 C         142.7237  139.3064  167.4499 C.ar    1  UNL1       -0.0061
     15 C         142.9156  138.7642  168.8353 C.ar    1  UNL1       -0.0022
     16 C         142.3383  139.4928  170.0124 C.ar    1  UNL1        0.0100
     17 N         140.4145  142.2210  172.1587 N.1     1  UNL1       -0.1908
     18 C         140.9918  141.4923  170.9815 C.1     1  UNL1        0.1004
     19 C         139.7731  138.7517  159.6565 C.3     1  UNL1        0.0913
     20 C         138.7620  139.8230  159.3736 C.3     1  UNL1        0.1087
     21 N         137.6868  140.1231  160.3755 N.3     1  UNL1       -0.1780
     22 H         137.3869  139.2282  160.7625 H       1  UNL1        0.1488
     23 S         137.9768  141.0231  161.5399 S.O2    1  UNL1        0.0603
     24 O         137.5755  139.9296  162.4850 O.2     1  UNL1       -0.1530
     25 O         138.3780  142.1165  160.5948 O.2     1  UNL1       -0.1530
     26 C         138.2668  141.9232  162.7044 C.ar    1  UNL1        0.1221
     27 C         139.0946  141.4230  163.8509 C.ar    1  UNL1        0.0222
     28 C         139.3846  142.3230  165.0153 C.ar    1  UNL1        0.0310
     29 C         138.8468  143.7231  165.0331 C.ar    1  UNL1        0.1402
     30 F         139.1368  144.6232  166.1976 F       1  UNL1       -0.2042
     31 C         138.0189  144.2233  163.8866 C.ar    1  UNL1        0.0310
     32 C         137.7289  143.3233  162.7222 C.ar    1  UNL1        0.0222
@<TRIPOS>BOND
     1    17    18    3
     2    18    11    1
     3    11    12   ar
     4    12    13   ar
     5    13    14   ar
     6    14    10    1
     7    10     1    1
     8     1     2    1
     9     2     3    1
    10     3     4    1
    11     4     5    1
    12     5    19    1
    13    19    20    1
    14    20    21    1
    15    21    23    1
    16    23    24    2
    17    23    25    2
    18    23    26    1
    19    26    27   ar
    20    27    28   ar
    21    28    29   ar
    22    29    30    1
    23    29    31   ar
    24    31    32   ar
    25     5     6    1
    26     6     7    1
    27     7     8    1
    28     7     9    1
    29    14    15   ar
    30    15    16   ar
    31    16    11   ar
    32     8     1    1
    33     9     3    1
    34    32    26   ar
    35    21    22    1
@<TRIPOS>MOLECULE
*****
 32 35 0 0 0
SMALL
GASTEIGER

@<TRIPOS>ATOM
      1 N         138.8058  140.2041  164.0067 N.3     1  UNL1       -0.2647
      2 C         137.8917  141.3535  163.7015 C.3     1  UNL1        0.1037
      3 C         138.1122  142.1805  162.4697 C.3     1  UNL1        0.1470
      4 C         138.3327  143.0075  161.2378 C.3     1  UNL1        0.1035
      5 N         139.4673  142.6850  160.3111 N.3     1  UNL1       -0.2673
      6 C         140.3814  141.5354  160.6163 C.3     1  UNL1        0.1035
      7 C         140.1609  140.7085  161.8482 C.3     1  UNL1        0.1470
      8 C         139.9403  139.8815  163.0800 C.3     1  UNL1        0.1037
      9 O         139.2468  141.8580  161.5430 O.3     1  UNL1       -0.3530
     10 C         138.5853  139.3770  165.2386 C.3     1  UNL1        0.0993
     11 C         139.8650  140.9429  169.2586 C.ar    1  UNL1        0.0684
     12 C         138.7994  139.8911  169.1680 C.ar    1  UNL1        0.0100
     13 C         138.3728  139.3691  167.8279 C.ar    1  UNL1       -0.0022
     14 C         139.0118  139.8990  166.5786 C.ar    1  UNL1       -0.0061
     15 C         140.0775  140.9508  166.6693 C.ar    1  UNL1       -0.0022
     16 C         140.5040  141.4727  168.0092 C.ar    1  UNL1        0.0100
     17 N         140.7182  141.9867  171.9386 N.1     1  UNL1       -0.1908
     18 C         140.2916  141.4648  170.5986 C.1     1  UNL1        0.1004
     19 C         139.6878  143.5119  159.0793 C.3     1  UNL1        0.0913
     20 C         140.9510  144.3061  158.9252 C.3     1  UNL1        0.1087
     21 N         141.3674  145.2685  159.9978 N.3     1  UNL1       -0.1780
     22 H         140.5602  145.8613  160.1910 H       1  UNL1        0.1488
     23 S         141.8528  144.7534  161.3203 S.O2    1  UNL1        0.0603
     24 O         140.7513  145.4980  162.0146 O.2     1  UNL1       -0.1530
     25 O         142.9544  144.0088  160.6259 O.2     1  UNL1       -0.1530
     26 C         142.3384  144.2383  162.6428 C.ar    1  UNL1        0.1221
     27 C         143.8068  144.2237  162.9487 C.ar    1  UNL1        0.0222
     28 C         144.2923  143.7086  164.2711 C.ar    1  UNL1        0.0310
     29 C         143.3095  143.2082  165.2877 C.ar    1  UNL1        0.1402
     30 F         143.7950  142.6931  166.6102 F       1  UNL1       -0.2042
     31 C         141.8410  143.2228  164.9819 C.ar    1  UNL1        0.0310
     32 C         141.3555  143.7379  163.6594 C.ar    1  UNL1        0.0222
@<TRIPOS>BOND
     1    17    18    3
     2    18    11    1
     3    11    12   ar
     4    12    13   ar
     5    13    14   ar
     6    14    10    1
     7    10     1    1
     8     1     2    1
     9     2     3    1
    10     3     4    1
    11     4     5    1
    12     5    19    1
    13    19    20    1
    14    20    21    1
    15    21    23    1
    16    23    24    2
    17    23    25    2
    18    23    26    1
    19    26    27   ar
    20    27    28   ar
    21    28    29   ar
    22    29    30    1
    23    29    31   ar
    24    31    32   ar
    25     5     6    1
    26     6     7    1
    27     7     8    1
    28     7     9    1
    29    14    15   ar
    30    15    16   ar
    31    16    11   ar
    32     8     1    1
    33     9     3    1
    34    32    26   ar
    35    21    22    1
@<TRIPOS>MOLECULE
*****
 32 35 0 0 0
SMALL
GASTEIGER

@<TRIPOS>ATOM
      1 N         143.1693  142.0117  165.2111 N.3     1  UNL1       -0.2647
      2 C         144.1963  141.0150  164.7617 C.3     1  UNL1        0.1037
      3 C         144.3241  140.6743  163.3065 C.3     1  UNL1        0.1470
      4 C         144.4520  140.3336  161.8513 C.3     1  UNL1        0.1035
      5 N         143.5529  140.9895  160.8456 N.3     1  UNL1       -0.2673
      6 C         142.5259  141.9862  161.2952 C.3     1  UNL1        0.1035
      7 C         142.3981  142.3269  162.7503 C.3     1  UNL1        0.1470
      8 C         142.2702  142.6676  164.2055 C.3     1  UNL1        0.1037
      9 O         143.4250  141.3303  162.3008 O.3     1  UNL1       -0.3530
     10 C         143.0415  142.3524  166.6664 C.3     1  UNL1        0.0993
     11 C         139.6441  140.6596  169.0836 C.ar    1  UNL1        0.0684
     12 C         140.1357  139.9311  167.8680 C.ar    1  UNL1        0.0100
     13 C         141.2681  140.4954  167.0622 C.ar    1  UNL1       -0.0022
     14 C         141.9090  141.7881  167.4721 C.ar    1  UNL1       -0.0061
     15 C         141.4175  142.5167  168.6877 C.ar    1  UNL1       -0.0022
     16 C         140.2850  141.9524  169.4934 C.ar    1  UNL1        0.0100
     17 N         137.3793  139.5311  170.6950 N.1     1  UNL1       -0.1908
     18 C         138.5117  140.0954  169.8893 C.1     1  UNL1        0.1004
     19 C         143.6807  140.6489  159.3904 C.3     1  UNL1        0.0913
     20 C         142.5467  139.9762  158.6752 C.3     1  UNL1        0.1087
     21 N         142.1355  138.5863  159.0613 N.3     1  UNL1       -0.1780
     22 H         142.9779  138.0118  159.0341 H       1  UNL1        0.1488
     23 S         141.4850  138.3385  160.3899 S.O2    1  UNL1        0.0603
     24 O         140.3161  139.1819  159.9749 O.2     1  UNL1       -0.1530
     25 O         142.6540  137.4950  160.8049 O.2     1  UNL1       -0.1530
     26 C         140.8345  138.0906  161.7187 C.ar    1  UNL1        0.1221
     27 C         139.3388  138.0807  161.8312 C.ar    1  UNL1        0.0222
     28 C         138.6883  137.8328  163.1599 C.ar    1  UNL1        0.0310
     29 C         139.5335  137.5949  164.3760 C.ar    1  UNL1        0.1402
     30 F         138.8830  137.3470  165.7047 F       1  UNL1       -0.2042
     31 C         141.0292  137.6048  164.2634 C.ar    1  UNL1        0.0310
     32 C         141.6798  137.8526  162.9348 C.ar    1  UNL1        0.0222
@<TRIPOS>BOND
     1    17    18    3
     2    18    11    1
     3    11    12   ar
     4    12    13   ar
     5    13    14   ar
     6    14    10    1
     7    10     1    1
     8     1     2    1
     9     2     3    1
    10     3     4    1
    11     4     5    1
    12     5    19    1
    13    19    20    1
    14    20    21    1
    15    21    23    1
    16    23    24    2
    17    23    25    2
    18    23    26    1
    19    26    27   ar
    20    27    28   ar
    21    28    29   ar
    22    29    30    1
    23    29    31   ar
    24    31    32   ar
    25     5     6    1
    26     6     7    1
    27     7     8    1
    28     7     9    1
    29    14    15   ar
    30    15    16   ar
    31    16    11   ar
    32     8     1    1
    33     9     3    1
    34    32    26   ar
    35    21    22    1
@<TRIPOS>MOLECULE
*****
 32 35 0 0 0
SMALL
GASTEIGER

@<TRIPOS>ATOM
      1 N         143.5403  139.3808  164.6496 N.3     1  UNL1       -0.2647
      2 C         144.6345  140.3813  164.4228 C.3     1  UNL1        0.1037
      3 C         144.7436  141.0875  163.1039 C.3     1  UNL1        0.1470
      4 C         144.8526  141.7936  161.7850 C.3     1  UNL1        0.1035
      5 N         143.8673  141.4993  160.6930 N.3     1  UNL1       -0.2673
      6 C         142.7730  140.4987  160.9198 C.3     1  UNL1        0.1035
      7 C         142.6640  139.7926  162.2387 C.3     1  UNL1        0.1470
      8 C         142.5550  139.0864  163.5576 C.3     1  UNL1        0.1037
      9 O         143.7583  140.7931  162.0119 O.3     1  UNL1       -0.3530
     10 C         143.4312  138.6746  165.9686 C.3     1  UNL1        0.0993
     11 C         141.6641  140.8002  169.5195 C.ar    1  UNL1        0.0684
     12 C         142.3580  139.4831  169.7028 C.ar    1  UNL1        0.0100
     13 C         142.9470  138.7745  168.5191 C.ar    1  UNL1       -0.0022
     14 C         142.8422  139.3831  167.1522 C.ar    1  UNL1       -0.0061
     15 C         142.1483  140.7004  166.9689 C.ar    1  UNL1       -0.0022
     16 C         141.5593  141.4089  168.1525 C.ar    1  UNL1        0.0100
     17 N         140.4861  142.2173  171.8868 N.1     1  UNL1       -0.1908
     18 C         141.0751  141.5087  170.7031 C.1     1  UNL1        0.1004
     19 C         143.9764  142.2054  159.3741 C.3     1  UNL1        0.0913
     20 C         142.8744  143.1145  158.9167 C.3     1  UNL1        0.1087
     21 N         142.5577  144.3585  159.6927 N.3     1  UNL1       -0.1780
     22 H         142.2629  145.0614  159.0149 H       1  UNL1        0.1488
     23 S         141.5108  144.3265  160.7665 S.O2    1  UNL1        0.0603
     24 O         140.4569  144.0667  159.7312 O.2     1  UNL1       -0.1530
     25 O         142.5647  144.5863  161.8017 O.2     1  UNL1       -0.1530
     26 C         140.4639  144.2945  161.8403 C.ar    1  UNL1        0.1221
     27 C         139.1513  143.6137  161.5880 C.ar    1  UNL1        0.0222
     28 C         138.1044  143.5816  162.6617 C.ar    1  UNL1        0.0310
     29 C         138.3701  144.2304  163.9878 C.ar    1  UNL1        0.1402
     30 F         137.3232  144.1984  165.0616 F       1  UNL1       -0.2042
     31 C         139.6827  144.9112  164.2401 C.ar    1  UNL1        0.0310
     32 C         140.7296  144.9432  163.1664 C.ar    1  UNL1        0.0222
@<TRIPOS>BOND
     1    17    18    3
     2    18    11    1
     3    11    12   ar
     4    12    13   ar
     5    13    14   ar
     6    14    10    1
     7    10     1    1
     8     1     2    1
     9     2     3    1
    10     3     4    1
    11     4     5    1
    12     5    19    1
    13    19    20    1
    14    20    21    1
    15    21    23    1
    16    23    24    2
    17    23    25    2
    18    23    26    1
    19    26    27   ar
    20    27    28   ar
    21    28    29   ar
    22    29    30    1
    23    29    31   ar
    24    31    32   ar
    25     5     6    1
    26     6     7    1
    27     7     8    1
    28     7     9    1
    29    14    15   ar
    30    15    16   ar
    31    16    11   ar
    32     8     1    1
    33     9     3    1
    34    32    26   ar
    35    21    22    1
@<TRIPOS>MOLECULE
*****
 32 35 0 0 0
SMALL
GASTEIGER

@<TRIPOS>ATOM
      1 N         138.8662  138.9572  164.7728 N.3     1  UNL1       -0.2647
      2 C         139.8881  137.8810  164.5551 C.3     1  UNL1        0.1037
      3 C         140.5492  137.7342  163.2166 C.3     1  UNL1        0.1470
      4 C         141.2103  137.5874  161.8782 C.3     1  UNL1        0.1035
      5 N         140.8495  138.5168  160.7575 N.3     1  UNL1       -0.2673
      6 C         139.8275  139.5931  160.9752 C.3     1  UNL1        0.1035
      7 C         139.1665  139.7399  162.3137 C.3     1  UNL1        0.1470
      8 C         138.5054  139.8867  163.6521 C.3     1  UNL1        0.1037
      9 O         140.1883  138.6637  162.0959 O.3     1  UNL1       -0.3530
     10 C         138.2051  139.1041  166.1112 C.3     1  UNL1        0.0993
     11 C         140.4047  141.0816  169.5025 C.ar    1  UNL1        0.0684
     12 C         140.9021  141.2343  168.0957 C.ar    1  UNL1        0.0100
     13 C         140.1689  140.5751  166.9652 C.ar    1  UNL1       -0.0022
     14 C         138.9383  139.7633  167.2416 C.ar    1  UNL1       -0.0061
     15 C         138.4409  139.6106  168.6486 C.ar    1  UNL1       -0.0022
     16 C         139.1741  140.2697  169.7789 C.ar    1  UNL1        0.0100
     17 N         141.8712  142.4000  171.7633 N.1     1  UNL1       -0.1908
     18 C         141.1380  141.7408  170.6329 C.1     1  UNL1        0.1004
     19 C         141.5105  138.3700  159.4191 C.3     1  UNL1        0.0913
     20 C         142.7125  139.2014  159.0810 C.3     1  UNL1        0.1087
     21 N         143.9246  139.1613  159.9636 N.3     1  UNL1       -0.1780
     22 H         144.7114  139.4795  159.3980 H       1  UNL1        0.1488
     23 S         143.9540  139.9585  161.2339 S.O2    1  UNL1        0.0603
     24 O         144.4270  138.7479  161.9827 O.2     1  UNL1       -0.1530
     25 O         143.4810  141.1690  160.4851 O.2     1  UNL1       -0.1530
     26 C         143.9834  140.7557  162.5042 C.ar    1  UNL1        0.1221
     27 C         142.7362  140.9071  163.3237 C.ar    1  UNL1        0.0222
     28 C         142.7656  141.7043  164.5939 C.ar    1  UNL1        0.0310
     29 C         144.0422  142.3501  165.0447 C.ar    1  UNL1        0.1402
     30 F         144.0716  143.1474  166.3150 F       1  UNL1       -0.2042
     31 C         145.2894  142.1987  164.2252 C.ar    1  UNL1        0.0310
     32 C         145.2600  141.4015  162.9550 C.ar    1  UNL1        0.0222
@<TRIPOS>BOND
     1    17    18    3
     2    18    11    1
     3    11    12   ar
     4    12    13   ar
     5    13    14   ar
     6    14    10    1
     7    10     1    1
     8     1     2    1
     9     2     3    1
    10     3     4    1
    11     4     5    1
    12     5    19    1
    13    19    20    1
    14    20    21    1
    15    21    23    1
    16    23    24    2
    17    23    25    2
    18    23    26    1
    19    26    27   ar
    20    27    28   ar
    21    28    29   ar
    22    29    30    1
    23    29    31   ar
    24    31    32   ar
    25     5     6    1
    26     6     7    1
    27     7     8    1
    28     7     9    1
    29    14    15   ar
    30    15    16   ar
    31    16    11   ar
    32     8     1    1
    33     9     3    1
    34    32    26   ar
    35    21    22    1
@<TRIPOS>MOLECULE
*****
 32 35 0 0 0
SMALL
GASTEIGER

@<TRIPOS>ATOM
      1 N         139.4269  139.8978  163.9260 N.3     1  UNL1       -0.2647
      2 C         140.4571  138.9271  163.4298 C.3     1  UNL1        0.1037
      3 C         141.2701  139.2535  162.2123 C.3     1  UNL1        0.1470
      4 C         142.0832  139.5798  160.9947 C.3     1  UNL1        0.1035
      5 N         141.8660  140.8770  160.2734 N.3     1  UNL1       -0.2673
      6 C         140.8357  141.8477  160.7697 C.3     1  UNL1        0.1035
      7 C         140.0227  141.5213  161.9872 C.3     1  UNL1        0.1470
      8 C         139.2097  141.1949  163.2047 C.3     1  UNL1        0.1037
      9 O         141.0529  140.5506  161.4910 O.3     1  UNL1       -0.3530
     10 C         138.6138  139.5714  165.1436 C.3     1  UNL1        0.0993
     11 C         139.8912  141.1005  169.1785 C.ar    1  UNL1        0.0684
     12 C         140.4005  141.7596  167.9311 C.ar    1  UNL1        0.0100
     13 C         139.9747  141.2500  166.5860 C.ar    1  UNL1       -0.0022
     14 C         139.0396  140.0811  166.4885 C.ar    1  UNL1       -0.0061
     15 C         138.5303  139.4220  167.7361 C.ar    1  UNL1       -0.0022
     16 C         138.9561  139.9317  169.0810 C.ar    1  UNL1        0.0100
     17 N         140.7428  142.1200  171.8684 N.1     1  UNL1       -0.1908
     18 C         140.3170  141.6102  170.5234 C.1     1  UNL1        0.1004
     19 C         142.6790  141.2034  159.0558 C.3     1  UNL1        0.0913
     20 C         143.5514  142.4236  159.0414 C.3     1  UNL1        0.1087
     21 N         144.7087  142.5293  159.9898 N.3     1  UNL1       -0.1780
     22 H         145.2042  143.3894  159.7550 H       1  UNL1        0.1488
     23 S         144.4653  142.5600  161.4696 S.O2    1  UNL1        0.0603
     24 O         143.7583  143.8750  161.3260 O.2     1  UNL1       -0.1530
     25 O         145.1724  141.2449  161.6131 O.2     1  UNL1       -0.1530
     26 C         144.2220  142.5906  162.9494 C.ar    1  UNL1        0.1221
     27 C         144.3033  143.8890  163.6961 C.ar    1  UNL1        0.0222
     28 C         144.0600  143.9197  165.1759 C.ar    1  UNL1        0.0310
     29 C         143.7353  142.6520  165.9090 C.ar    1  UNL1        0.1402
     30 F         143.4919  142.6827  167.3888 F       1  UNL1       -0.2042
     31 C         143.6539  141.3536  165.1623 C.ar    1  UNL1        0.0310
     32 C         143.8973  141.3229  163.6825 C.ar    1  UNL1        0.0222
@<TRIPOS>BOND
     1    17    18    3
     2    18    11    1
     3    11    12   ar
     4    12    13   ar
     5    13    14   ar
     6    14    10    1
     7    10     1    1
     8     1     2    1
     9     2     3    1
    10     3     4    1
    11     4     5    1
    12     5    19    1
    13    19    20    1
    14    20    21    1
    15    21    23    1
    16    23    24    2
    17    23    25    2
    18    23    26    1
    19    26    27   ar
    20    27    28   ar
    21    28    29   ar
    22    29    30    1
    23    29    31   ar
    24    31    32   ar
    25     5     6    1
    26     6     7    1
    27     7     8    1
    28     7     9    1
    29    14    15   ar
    30    15    16   ar
    31    16    11   ar
    32     8     1    1
    33     9     3    1
    34    32    26   ar
    35    21    22    1
