@<TRIPOS>MOLECULE
*****
 42 44 0 0 0
SMALL
GASTEIGER

@<TRIPOS>ATOM
      1 C         140.4958  139.0267  160.3361 C.2     1  UNL1        0.2302
      2 O         139.0347  138.7145  160.4684 O.2     1  UNL1       -0.2745
      3 N         141.3126  139.3255  161.5582 N.am    1  UNL1       -0.2582
      4 C         140.6681  139.3121  162.9127 C.ar    1  UNL1        0.0843
      5 C         140.0167  140.5537  163.4457 C.ar    1  UNL1        0.0537
      6 C         139.3723  140.5403  164.8001 C.ar    1  UNL1        0.1359
      7 C         139.3793  139.2852  165.6216 C.ar    1  UNL1        0.0138
      8 C         140.0306  138.0436  165.0886 C.ar    1  UNL1        0.0296
      9 C         140.6751  138.0571  163.7342 C.ar    1  UNL1        0.1536
     10 F         141.3265  136.8154  163.2012 F       1  UNL1       -0.2029
     11 C         138.7348  139.2718  166.9761 C.3     1  UNL1        0.0254
     12 C         137.4650  138.5040  167.1949 C.3     1  UNL1        0.0048
     13 C         139.3602  140.0263  168.1117 C.3     1  UNL1        0.0048
     14 O         138.7209  141.7819  165.3331 O.3     1  UNL1       -0.4756
     15 C         137.7331  142.5319  164.4895 C.3     1  UNL1        0.2080
     16 C         137.9526  143.9855  164.1913 C.3     1  UNL1        0.0793
     17 C         139.0033  144.3981  163.2033 C.3     1  UNL1        0.1461
     18 O         138.6847  145.4203  162.1528 O.3     1  UNL1       -0.3510
     19 C         139.7776  146.2744  161.5815 C.3     1  UNL1        0.1741
     20 C         142.5302  137.8468  157.1394 C.3     1  UNL1        0.0927
     21 C         142.4291  139.0669  156.2728 C.3     1  UNL1        0.0777
     22 N         141.6836  140.2737  156.7606 N.3     1  UNL1       -0.2967
     23 C         141.0392  140.2602  158.1150 C.3     1  UNL1        0.0777
     24 C         141.1403  139.0401  158.9816 C.3     1  UNL1        0.0932
     25 C         141.8858  137.8334  158.4938 C.3     1  UNL1        0.0210
     26 H         140.9426  140.4555  156.0837 H       1  UNL1        0.1233
     27 N         142.8938  135.2743  157.1401 N.am    1  UNL1       -0.3035
     28 C         143.2757  136.6400  156.6515 C.2     1  UNL1        0.2234
     29 O         144.4032  136.7991  155.6750 O.2     1  UNL1       -0.2751
     30 H         142.1539  135.1699  157.7810 H       1  UNL1        0.1495
     31 C         143.6394  134.0675  156.6522 C.3     1  UNL1        0.1011
     32 C         143.5533  133.6652  155.2098 C.3     1  UNL1        0.0221
     33 C         142.2172  133.5807  154.5332 C.3     1  UNL1        0.0017
     34 C         141.2136  132.5592  154.9798 C.3     1  UNL1        0.0001
     35 C         141.8846  134.5177  153.4101 C.3     1  UNL1        0.0001
     36 C         144.4710  133.2631  157.6069 C.3     1  UNL1        0.1615
     37 O         145.2135  132.0542  157.1198 O.3     1  UNL1       -0.3520
     38 C         143.3871  130.2220  157.3586 C.3     1  UNL1        0.0346
     39 C         144.7975  130.6859  157.5720 C.3     1  UNL1        0.1423
     40 C         142.7737  139.6377  161.4260 C.3     1  UNL1        0.0800
     41 C         143.8855  140.3937  160.7610 C.3     1  UNL1        0.0219
     42 C         144.1927  139.4223  161.8619 C.3     1  UNL1        0.0219
@<TRIPOS>BOND
     1    38    39    1
     2    39    37    1
     3    37    36    1
     4    31    36    1
     5    31    32    1
     6    32    33    1
     7    33    34    1
     8    33    35    1
     9    31    27    1
    10    27    28   am
    11    28    29    2
    12    20    28    1
    13    20    21    1
    14    21    22    1
    15    22    23    1
    16    23    24    1
    17    24     1    1
    18     1     2    2
    19     1     3   am
    20     3     4    1
    21     4     5   ar
    22     5     6   ar
    23     6    14    1
    24    14    15    1
    25    15    16    1
    26    16    17    1
    27    17    18    1
    28    18    19    1
    29     6     7   ar
    30     7    11    1
    31    11    12    1
    32    11    13    1
    33     7     8   ar
    34     8     9   ar
    35     9    10    1
    36     3    40    1
    37    40    41    1
    38    41    42    1
    39    24    25    1
    40    25    20    1
    41     9     4   ar
    42    42    40    1
    43    27    30    1
    44    22    26    1
@<TRIPOS>MOLECULE
*****
 42 44 0 0 0
SMALL
GASTEIGER

@<TRIPOS>ATOM
      1 C         140.9719  142.6571  161.4403 C.2     1  UNL1        0.2302
      2 O         139.7126  141.8476  161.3458 O.2     1  UNL1       -0.2745
      3 N         141.6857  142.7832  162.7535 N.am    1  UNL1       -0.2582
      4 C         141.1401  142.0998  163.9723 C.ar    1  UNL1        0.0843
      5 C         141.3800  140.6339  164.1808 C.ar    1  UNL1        0.0537
      6 C         140.8344  139.9506  165.3996 C.ar    1  UNL1        0.1359
      7 C         140.0490  140.7332  166.4099 C.ar    1  UNL1        0.0138
      8 C         139.8091  142.1991  166.2014 C.ar    1  UNL1        0.0296
      9 C         140.3547  142.8824  164.9826 C.ar    1  UNL1        0.1536
     10 F         140.1148  144.3484  164.7740 F       1  UNL1       -0.2029
     11 C         139.5034  140.0499  167.6287 C.3     1  UNL1        0.0254
     12 C         140.1963  140.2067  168.9498 C.3     1  UNL1        0.0048
     13 C         138.2651  139.2097  167.5264 C.3     1  UNL1        0.0048
     14 O         141.0743  138.4846  165.6082 O.3     1  UNL1       -0.4756
     15 C         140.4324  137.4823  164.6954 C.3     1  UNL1        0.2080
     16 C         139.0064  137.6636  164.2668 C.3     1  UNL1        0.0793
     17 C         138.6927  138.0706  162.8575 C.3     1  UNL1        0.1461
     18 O         139.7770  138.0816  161.8211 O.3     1  UNL1       -0.3510
     19 C         139.4421  138.3741  160.3884 C.3     1  UNL1        0.1741
     20 C         143.0518  143.3154  158.1251 C.3     1  UNL1        0.0927
     21 C         142.6085  144.7072  157.7840 C.3     1  UNL1        0.0777
     22 N         141.6197  145.4157  158.6616 N.3     1  UNL1       -0.2967
     23 C         141.0742  144.7323  159.8804 C.3     1  UNL1        0.0777
     24 C         141.5175  143.3405  160.2215 C.3     1  UNL1        0.0932
     25 C         142.5063  142.6321  159.3438 C.3     1  UNL1        0.0210
     26 H         140.8202  145.6516  158.0737 H       1  UNL1        0.1233
     27 N         144.3544  143.1467  155.8835 N.am    1  UNL1       -0.3035
     28 C         144.0408  142.6070  157.2474 C.2     1  UNL1        0.2234
     29 O         144.7160  141.3590  157.7337 O.2     1  UNL1       -0.2751
     30 H         143.9112  143.9658  155.5643 H       1  UNL1        0.1495
     31 C         145.3433  142.4382  155.0057 C.3     1  UNL1        0.1011
     32 C         146.7469  142.9541  154.8890 C.3     1  UNL1        0.0221
     33 C         147.7838  142.5401  155.8908 C.3     1  UNL1        0.0017
     34 C         148.9193  141.6538  155.4722 C.3     1  UNL1        0.0001
     35 C         147.6852  143.0124  157.3110 C.3     1  UNL1        0.0001
     36 C         144.9285  141.2140  154.2448 C.3     1  UNL1        0.1615
     37 O         145.1815  139.8519  154.8198 O.3     1  UNL1       -0.3520
     38 C         144.3316  137.4423  155.2902 C.3     1  UNL1        0.0346
     39 C         144.0485  138.8814  154.9761 C.3     1  UNL1        0.1423
     40 C         142.9450  143.5927  162.8480 C.3     1  UNL1        0.0800
     41 C         143.6684  144.8194  163.3189 C.3     1  UNL1        0.0219
     42 C         144.4026  143.7680  162.5409 C.3     1  UNL1        0.0219
@<TRIPOS>BOND
     1    38    39    1
     2    39    37    1
     3    37    36    1
     4    31    36    1
     5    31    32    1
     6    32    33    1
     7    33    34    1
     8    33    35    1
     9    31    27    1
    10    27    28   am
    11    28    29    2
    12    20    28    1
    13    20    21    1
    14    21    22    1
    15    22    23    1
    16    23    24    1
    17    24     1    1
    18     1     2    2
    19     1     3   am
    20     3     4    1
    21     4     5   ar
    22     5     6   ar
    23     6    14    1
    24    14    15    1
    25    15    16    1
    26    16    17    1
    27    17    18    1
    28    18    19    1
    29     6     7   ar
    30     7    11    1
    31    11    12    1
    32    11    13    1
    33     7     8   ar
    34     8     9   ar
    35     9    10    1
    36     3    40    1
    37    40    41    1
    38    41    42    1
    39    24    25    1
    40    25    20    1
    41     9     4   ar
    42    42    40    1
    43    27    30    1
    44    22    26    1
@<TRIPOS>MOLECULE
*****
 42 44 0 0 0
SMALL
GASTEIGER

@<TRIPOS>ATOM
      1 C         140.3841  139.1864  160.3310 C.2     1  UNL1        0.2302
      2 O         138.8988  139.0362  160.4777 O.2     1  UNL1       -0.2745
      3 N         141.2495  139.3092  161.5499 N.am    1  UNL1       -0.2582
      4 C         140.6298  139.2819  162.9156 C.ar    1  UNL1        0.0843
      5 C         140.0843  140.5432  163.5170 C.ar    1  UNL1        0.0537
      6 C         139.4646  140.5158  164.8827 C.ar    1  UNL1        0.1359
      7 C         139.3904  139.2273  165.6470 C.ar    1  UNL1        0.0138
      8 C         139.9359  137.9661  165.0457 C.ar    1  UNL1        0.0296
      9 C         140.5556  137.9934  163.6800 C.ar    1  UNL1        0.1536
     10 F         141.1012  136.7322  163.0785 F       1  UNL1       -0.2029
     11 C         138.7707  139.2000  167.0128 C.3     1  UNL1        0.0254
     12 C         139.4222  139.9345  168.1468 C.3     1  UNL1        0.0048
     13 C         137.4995  138.4382  167.2445 C.3     1  UNL1        0.0048
     14 O         138.9190  141.7771  165.4842 O.3     1  UNL1       -0.4756
     15 C         139.0719  143.0811  164.7589 C.3     1  UNL1        0.2080
     16 C         137.9210  143.6452  163.9797 C.3     1  UNL1        0.0793
     17 C         138.1061  144.0313  162.5420 C.3     1  UNL1        0.1461
     18 O         138.5722  145.4130  162.1905 O.3     1  UNL1       -0.3510
     19 C         140.0400  145.7150  162.1232 C.3     1  UNL1        0.1741
     20 C         142.1125  137.9692  156.9722 C.3     1  UNL1        0.0927
     21 C         142.2432  139.2683  156.2338 C.3     1  UNL1        0.0777
     22 N         141.7542  140.5401  156.8611 N.3     1  UNL1       -0.2967
     23 C         141.1345  140.5127  158.2267 C.3     1  UNL1        0.0777
     24 C         141.0038  139.2137  158.9652 C.3     1  UNL1        0.0932
     25 C         141.4928  137.9419  158.3379 C.3     1  UNL1        0.0210
     26 H         141.0559  140.9308  156.2286 H       1  UNL1        0.1233
     27 N         141.6287  135.6092  155.9994 N.am    1  UNL1       -0.3035
     28 C         142.6015  136.6974  156.3449 C.2     1  UNL1        0.2234
     29 O         144.0633  136.5140  156.0631 O.2     1  UNL1       -0.2751
     30 H         140.6693  135.7296  156.1844 H       1  UNL1        0.1495
     31 C         142.1178  134.3374  155.3721 C.3     1  UNL1        0.1011
     32 C         142.3698  133.1293  156.2246 C.3     1  UNL1        0.0221
     33 C         143.7430  132.8689  156.7690 C.3     1  UNL1        0.0017
     34 C         144.6524  131.8970  156.0771 C.3     1  UNL1        0.0001
     35 C         144.2070  133.5803  158.0054 C.3     1  UNL1        0.0001
     36 C         142.3547  134.2739  153.8923 C.3     1  UNL1        0.1615
     37 O         141.1950  134.3429  152.9434 O.3     1  UNL1       -0.3520
     38 C         139.7186  136.4794  153.0175 C.3     1  UNL1        0.0346
     39 C         140.7856  135.6601  152.3541 C.3     1  UNL1        0.1423
     40 C         142.7348  139.4594  161.4031 C.3     1  UNL1        0.0800
     41 C         144.0739  138.8689  161.0746 C.3     1  UNL1        0.0219
     42 C         143.9681  140.3099  161.4775 C.3     1  UNL1        0.0219
@<TRIPOS>BOND
     1    38    39    1
     2    39    37    1
     3    37    36    1
     4    31    36    1
     5    31    32    1
     6    32    33    1
     7    33    34    1
     8    33    35    1
     9    31    27    1
    10    27    28   am
    11    28    29    2
    12    20    28    1
    13    20    21    1
    14    21    22    1
    15    22    23    1
    16    23    24    1
    17    24     1    1
    18     1     2    2
    19     1     3   am
    20     3     4    1
    21     4     5   ar
    22     5     6   ar
    23     6    14    1
    24    14    15    1
    25    15    16    1
    26    16    17    1
    27    17    18    1
    28    18    19    1
    29     6     7   ar
    30     7    11    1
    31    11    12    1
    32    11    13    1
    33     7     8   ar
    34     8     9   ar
    35     9    10    1
    36     3    40    1
    37    40    41    1
    38    41    42    1
    39    24    25    1
    40    25    20    1
    41     9     4   ar
    42    42    40    1
    43    27    30    1
    44    22    26    1
@<TRIPOS>MOLECULE
*****
 42 44 0 0 0
SMALL
GASTEIGER

@<TRIPOS>ATOM
      1 C         142.0022  139.1359  160.7371 C.2     1  UNL1        0.2302
      2 O         142.9853  138.8892  161.8429 O.2     1  UNL1       -0.2745
      3 N         140.5500  139.3351  161.0552 N.am    1  UNL1       -0.2582
      4 C         140.0807  139.2876  162.4792 C.ar    1  UNL1        0.0843
      5 C         139.4316  140.4913  163.0955 C.ar    1  UNL1        0.0537
      6 C         138.9624  140.4437  164.5194 C.ar    1  UNL1        0.1359
      7 C         139.1423  139.1926  165.3270 C.ar    1  UNL1        0.0138
      8 C         139.7913  137.9889  164.7107 C.ar    1  UNL1        0.0296
      9 C         140.2605  138.0364  163.2868 C.ar    1  UNL1        0.1536
     10 F         140.9097  136.8327  162.6704 F       1  UNL1       -0.2029
     11 C         138.6730  139.1451  166.7510 C.3     1  UNL1        0.0254
     12 C         137.4748  138.3211  167.1187 C.3     1  UNL1        0.0048
     13 C         139.4020  139.9216  167.8071 C.3     1  UNL1        0.0048
     14 O         138.3133  141.6474  165.1358 O.3     1  UNL1       -0.4756
     15 C         138.9890  142.9845  165.0614 C.3     1  UNL1        0.2080
     16 C         138.3064  144.1328  164.3792 C.3     1  UNL1        0.0793
     17 C         138.1861  144.1529  162.8841 C.3     1  UNL1        0.1461
     18 O         138.4558  145.4193  162.1269 O.3     1  UNL1       -0.3510
     19 C         139.8606  145.9278  161.9920 C.3     1  UNL1        0.1741
     20 C         142.9688  137.9769  157.0666 C.3     1  UNL1        0.0927
     21 C         143.4099  139.2784  156.4654 C.3     1  UNL1        0.0777
     22 N         143.3818  140.5324  157.2880 N.3     1  UNL1       -0.2967
     23 C         142.9126  140.4848  158.7118 C.3     1  UNL1        0.0777
     24 C         142.4715  139.1834  159.3131 C.3     1  UNL1        0.0932
     25 C         142.4996  137.9294  158.4905 C.3     1  UNL1        0.0210
     26 H         142.7751  141.1912  156.7998 H       1  UNL1        0.1233
     27 N         141.7248  135.9767  155.9704 N.am    1  UNL1       -0.3035
     28 C         142.9969  136.7229  156.2440 C.2     1  UNL1        0.2234
     29 O         144.2972  136.2151  155.6949 O.2     1  UNL1       -0.2751
     30 H         140.8714  136.3099  156.3307 H       1  UNL1        0.1495
     31 C         141.7530  134.7227  155.1477 C.3     1  UNL1        0.1011
     32 C         141.7620  134.8081  153.6502 C.3     1  UNL1        0.0221
     33 C         141.1660  136.0012  152.9635 C.3     1  UNL1        0.0017
     34 C         142.0247  137.1887  152.6431 C.3     1  UNL1        0.0001
     35 C         139.7115  136.0067  152.5973 C.3     1  UNL1        0.0001
     36 C         141.7721  133.3832  155.8226 C.3     1  UNL1        0.1615
     37 O         142.9129  133.0137  156.7237 O.3     1  UNL1       -0.3520
     38 C         145.0246  131.5193  156.4844 C.3     1  UNL1        0.0346
     39 C         144.2771  132.7753  156.1474 C.3     1  UNL1        0.1423
     40 C         139.5669  139.5817  159.9495 C.3     1  UNL1        0.0800
     41 C         138.2746  140.1716  159.4678 C.3     1  UNL1        0.0219
     42 C         139.1565  139.4190  158.5159 C.3     1  UNL1        0.0219
@<TRIPOS>BOND
     1    38    39    1
     2    39    37    1
     3    37    36    1
     4    31    36    1
     5    31    32    1
     6    32    33    1
     7    33    34    1
     8    33    35    1
     9    31    27    1
    10    27    28   am
    11    28    29    2
    12    20    28    1
    13    20    21    1
    14    21    22    1
    15    22    23    1
    16    23    24    1
    17    24     1    1
    18     1     2    2
    19     1     3   am
    20     3     4    1
    21     4     5   ar
    22     5     6   ar
    23     6    14    1
    24    14    15    1
    25    15    16    1
    26    16    17    1
    27    17    18    1
    28    18    19    1
    29     6     7   ar
    30     7    11    1
    31    11    12    1
    32    11    13    1
    33     7     8   ar
    34     8     9   ar
    35     9    10    1
    36     3    40    1
    37    40    41    1
    38    41    42    1
    39    24    25    1
    40    25    20    1
    41     9     4   ar
    42    42    40    1
    43    27    30    1
    44    22    26    1
@<TRIPOS>MOLECULE
*****
 42 44 0 0 0
SMALL
GASTEIGER

@<TRIPOS>ATOM
      1 C         141.5182  143.9632  162.3359 C.2     1  UNL1        0.2302
      2 O         142.5237  144.5629  163.2736 O.2     1  UNL1       -0.2745
      3 N         140.4987  142.9910  162.8512 N.am    1  UNL1       -0.2582
      4 C         140.4846  142.6185  164.3041 C.ar    1  UNL1        0.0843
      5 C         140.9250  141.2499  164.7318 C.ar    1  UNL1        0.0537
      6 C         140.9110  140.8775  166.1847 C.ar    1  UNL1        0.1359
      7 C         140.4566  141.8737  167.2100 C.ar    1  UNL1        0.0138
      8 C         140.0162  143.2423  166.7823 C.ar    1  UNL1        0.0296
      9 C         140.0302  143.6147  165.3294 C.ar    1  UNL1        0.1536
     10 F         139.5898  144.9834  164.9017 F       1  UNL1       -0.2029
     11 C         140.4425  141.5012  168.6630 C.3     1  UNL1        0.0254
     12 C         139.4372  140.5121  169.1740 C.3     1  UNL1        0.0048
     13 C         141.4337  142.1177  169.6049 C.3     1  UNL1        0.0048
     14 O         141.3514  139.5088  166.6125 O.3     1  UNL1       -0.4756
     15 C         142.7881  139.2588  166.9635 C.3     1  UNL1        0.2080
     16 C         143.6451  138.4199  166.0626 C.3     1  UNL1        0.0793
     17 C         144.3551  139.0508  164.9016 C.3     1  UNL1        0.1461
     18 O         143.5910  139.4147  163.6631 O.3     1  UNL1       -0.3510
     19 C         143.4268  138.4105  162.5610 C.3     1  UNL1        0.1741
     20 C         142.5167  144.0483  158.4959 C.3     1  UNL1        0.0927
     21 C         141.5602  145.0807  157.9771 C.3     1  UNL1        0.0777
     22 N         140.5897  145.7406  158.9112 N.3     1  UNL1       -0.2967
     23 C         140.5757  145.3681  160.3641 C.3     1  UNL1        0.0777
     24 C         141.5322  144.3357  160.8829 C.3     1  UNL1        0.0932
     25 C         142.5027  143.6758  159.9488 C.3     1  UNL1        0.0210
     26 H         139.6556  145.5489  158.5491 H       1  UNL1        0.1233
     27 N         144.7575  142.7958  158.0958 N.am    1  UNL1       -0.3035
     28 C         143.4872  143.3883  157.5617 C.2     1  UNL1        0.2234
     29 O         143.1874  143.3210  156.0936 O.2     1  UNL1       -0.2751
     30 H         144.9543  142.8400  159.0594 H       1  UNL1        0.1495
     31 C         145.7280  142.1358  157.1616 C.3     1  UNL1        0.1011
     32 C         147.0668  142.7620  156.9058 C.3     1  UNL1        0.0221
     33 C         147.7308  142.5938  155.5714 C.3     1  UNL1        0.0017
     34 C         147.2121  143.3376  154.3764 C.3     1  UNL1        0.0001
     35 C         148.9135  141.6819  155.4318 C.3     1  UNL1        0.0001
     36 C         145.3597  140.8497  156.4832 C.3     1  UNL1        0.1615
     37 O         144.5963  139.7983  157.2327 O.3     1  UNL1       -0.3520
     38 C         142.0162  139.9658  157.4875 C.3     1  UNL1        0.0346
     39 C         143.2187  139.4092  156.7846 C.3     1  UNL1        0.1423
     40 C         139.4931  142.3914  161.9134 C.3     1  UNL1        0.0800
     41 C         139.1759  141.6676  160.6385 C.3     1  UNL1        0.0219
     42 C         138.0688  142.0765  161.5642 C.3     1  UNL1        0.0219
@<TRIPOS>BOND
     1    38    39    1
     2    39    37    1
     3    37    36    1
     4    31    36    1
     5    31    32    1
     6    32    33    1
     7    33    34    1
     8    33    35    1
     9    31    27    1
    10    27    28   am
    11    28    29    2
    12    20    28    1
    13    20    21    1
    14    21    22    1
    15    22    23    1
    16    23    24    1
    17    24     1    1
    18     1     2    2
    19     1     3   am
    20     3     4    1
    21     4     5   ar
    22     5     6   ar
    23     6    14    1
    24    14    15    1
    25    15    16    1
    26    16    17    1
    27    17    18    1
    28    18    19    1
    29     6     7   ar
    30     7    11    1
    31    11    12    1
    32    11    13    1
    33     7     8   ar
    34     8     9   ar
    35     9    10    1
    36     3    40    1
    37    40    41    1
    38    41    42    1
    39    24    25    1
    40    25    20    1
    41     9     4   ar
    42    42    40    1
    43    27    30    1
    44    22    26    1
@<TRIPOS>MOLECULE
*****
 42 44 0 0 0
SMALL
GASTEIGER

@<TRIPOS>ATOM
      1 C         141.4203  139.6997  163.3495 C.2     1  UNL1        0.2302
      2 O         139.9416  139.7554  163.5953 O.2     1  UNL1       -0.2745
      3 N         142.3718  140.2446  164.3731 N.am    1  UNL1       -0.2582
      4 C         141.8446  140.8451  165.6425 C.ar    1  UNL1        0.0843
      5 C         140.9288  142.0318  165.5871 C.ar    1  UNL1        0.0537
      6 C         140.4017  142.6323  166.8565 C.ar    1  UNL1        0.1359
      7 C         140.7903  142.0461  168.1814 C.ar    1  UNL1        0.0138
      8 C         141.7061  140.8595  168.2369 C.ar    1  UNL1        0.0296
      9 C         142.2333  140.2590  166.9674 C.ar    1  UNL1        0.1536
     10 F         143.1491  139.0722  167.0229 F       1  UNL1       -0.2029
     11 C         140.2632  142.6467  169.4509 C.3     1  UNL1        0.0254
     12 C         140.6527  144.0424  169.8385 C.3     1  UNL1        0.0048
     13 C         139.3465  141.8515  170.3326 C.3     1  UNL1        0.0048
     14 O         139.4858  143.8190  166.8011 O.3     1  UNL1       -0.4756
     15 C         139.2468  144.5217  165.4976 C.3     1  UNL1        0.2080
     16 C         138.0158  144.2176  164.6964 C.3     1  UNL1        0.0793
     17 C         138.1187  144.0035  163.2153 C.3     1  UNL1        0.1461
     18 O         138.2217  145.1815  162.2925 O.3     1  UNL1       -0.3510
     19 C         139.5572  145.8097  162.0243 C.3     1  UNL1        0.1741
     20 C         142.7561  139.3753  159.6265 C.3     1  UNL1        0.0927
     21 C         143.0018  137.8980  159.5412 C.3     1  UNL1        0.0777
     22 N         142.7204  137.0213  160.7253 N.3     1  UNL1       -0.2967
     23 C         142.1933  137.6219  161.9947 C.3     1  UNL1        0.0777
     24 C         141.9475  139.0992  162.0800 C.3     1  UNL1        0.0932
     25 C         142.2289  139.9759  160.8959 C.3     1  UNL1        0.0210
     26 H         143.5965  136.5555  160.9616 H       1  UNL1        0.1233
     27 N         144.2113  141.1856  158.4624 N.am    1  UNL1       -0.3035
     28 C         143.0375  140.2520  158.4423 C.2     1  UNL1        0.2234
     29 O         142.1451  140.1950  157.2380 O.2     1  UNL1       -0.2751
     30 H         144.7970  141.2230  159.2529 H       1  UNL1        0.1495
     31 C         144.4927  142.0623  157.2782 C.3     1  UNL1        0.1011
     32 C         145.6034  141.7121  156.3329 C.3     1  UNL1        0.0221
     33 C         146.9800  142.2647  156.5555 C.3     1  UNL1        0.0017
     34 C         147.2628  143.1099  157.7621 C.3     1  UNL1        0.0001
     35 C         148.0738  141.9723  155.5716 C.3     1  UNL1        0.0001
     36 C         143.6635  143.2892  157.0395 C.3     1  UNL1        0.1615
     37 O         142.6483  143.7181  158.0571 O.3     1  UNL1       -0.3520
     38 C         140.1682  144.0798  158.7413 C.3     1  UNL1        0.0346
     39 C         141.1849  143.5536  157.7720 C.3     1  UNL1        0.1423
     40 C         143.8505  140.1889  164.1273 C.3     1  UNL1        0.0800
     41 C         145.0857  140.7646  163.5007 C.3     1  UNL1        0.0219
     42 C         145.1763  139.5167  164.3282 C.3     1  UNL1        0.0219
@<TRIPOS>BOND
     1    38    39    1
     2    39    37    1
     3    37    36    1
     4    31    36    1
     5    31    32    1
     6    32    33    1
     7    33    34    1
     8    33    35    1
     9    31    27    1
    10    27    28   am
    11    28    29    2
    12    20    28    1
    13    20    21    1
    14    21    22    1
    15    22    23    1
    16    23    24    1
    17    24     1    1
    18     1     2    2
    19     1     3   am
    20     3     4    1
    21     4     5   ar
    22     5     6   ar
    23     6    14    1
    24    14    15    1
    25    15    16    1
    26    16    17    1
    27    17    18    1
    28    18    19    1
    29     6     7   ar
    30     7    11    1
    31    11    12    1
    32    11    13    1
    33     7     8   ar
    34     8     9   ar
    35     9    10    1
    36     3    40    1
    37    40    41    1
    38    41    42    1
    39    24    25    1
    40    25    20    1
    41     9     4   ar
    42    42    40    1
    43    27    30    1
    44    22    26    1
@<TRIPOS>MOLECULE
*****
 42 44 0 0 0
SMALL
GASTEIGER

@<TRIPOS>ATOM
      1 C         141.5758  142.7630  160.6545 C.2     1  UNL1        0.2302
      2 O         142.0702  141.7494  159.6655 O.2     1  UNL1       -0.2745
      3 N         140.4628  143.6959  160.2794 N.am    1  UNL1       -0.2582
      4 C         139.8442  143.6153  158.9152 C.ar    1  UNL1        0.0843
      5 C         140.4331  144.3954  157.7774 C.ar    1  UNL1        0.0537
      6 C         139.8145  144.3148  156.4133 C.ar    1  UNL1        0.1359
      7 C         138.6071  143.4541  156.1870 C.ar    1  UNL1        0.0138
      8 C         138.0182  142.6740  157.3248 C.ar    1  UNL1        0.0296
      9 C         138.6367  142.7546  158.6889 C.ar    1  UNL1        0.1536
     10 F         138.0479  141.9745  159.8268 F       1  UNL1       -0.2029
     11 C         137.9885  143.3735  154.8228 C.3     1  UNL1        0.0254
     12 C         137.0987  144.4788  154.3363 C.3     1  UNL1        0.0048
     13 C         138.2598  142.1877  153.9452 C.3     1  UNL1        0.0048
     14 O         140.4034  145.0950  155.2754 O.3     1  UNL1       -0.4756
     15 C         140.5179  146.5876  155.3693 C.3     1  UNL1        0.2080
     16 C         139.2812  147.4290  155.4818 C.3     1  UNL1        0.0793
     17 C         138.8971  148.0247  156.8038 C.3     1  UNL1        0.1461
     18 O         138.1947  149.3492  156.8538 O.3     1  UNL1       -0.3510
     19 C         138.5304  150.4145  155.8526 C.3     1  UNL1        0.1741
     20 C         142.0438  142.4591  164.5837 C.3     1  UNL1        0.0927
     21 C         143.4315  143.0048  164.7469 C.3     1  UNL1        0.0777
     22 N         144.2005  143.4699  163.5461 N.3     1  UNL1       -0.2967
     23 C         143.5820  143.3893  162.1820 C.3     1  UNL1        0.0777
     24 C         142.1943  142.8436  162.0187 C.3     1  UNL1        0.0932
     25 C         141.4252  142.3785  163.2196 C.3     1  UNL1        0.0210
     26 H         145.0579  142.9182  163.5137 H       1  UNL1        0.1233
     27 N         141.3609  140.5617  166.2219 N.am    1  UNL1       -0.3035
     28 C         141.2747  141.9940  165.7847 C.2     1  UNL1        0.2234
     29 O         140.4195  142.9612  166.5484 O.2     1  UNL1       -0.2751
     30 H         141.9221  139.9269  165.7207 H       1  UNL1        0.1495
     31 C         140.5918  140.0966  167.4229 C.3     1  UNL1        0.1011
     32 C         139.1980  139.5661  167.2617 C.3     1  UNL1        0.0221
     33 C         138.6813  139.2179  165.8973 C.3     1  UNL1        0.0017
     34 C         138.1024  140.2874  165.0191 C.3     1  UNL1        0.0001
     35 C         138.7433  137.8003  165.4110 C.3     1  UNL1        0.0001
     36 C         141.2165  140.1621  168.7851 C.3     1  UNL1        0.1615
     37 O         141.0601  141.3960  169.6234 O.3     1  UNL1       -0.3520
     38 C         143.3773  142.3308  168.9118 C.3     1  UNL1        0.0346
     39 C         142.2459  142.2735  169.8950 C.3     1  UNL1        0.1423
     40 C         139.9683  144.7095  161.2684 C.3     1  UNL1        0.0800
     41 C         140.0567  146.0746  161.8838 C.3     1  UNL1        0.0219
     42 C         139.0234  145.1000  162.3659 C.3     1  UNL1        0.0219
@<TRIPOS>BOND
     1    38    39    1
     2    39    37    1
     3    37    36    1
     4    31    36    1
     5    31    32    1
     6    32    33    1
     7    33    34    1
     8    33    35    1
     9    31    27    1
    10    27    28   am
    11    28    29    2
    12    20    28    1
    13    20    21    1
    14    21    22    1
    15    22    23    1
    16    23    24    1
    17    24     1    1
    18     1     2    2
    19     1     3   am
    20     3     4    1
    21     4     5   ar
    22     5     6   ar
    23     6    14    1
    24    14    15    1
    25    15    16    1
    26    16    17    1
    27    17    18    1
    28    18    19    1
    29     6     7   ar
    30     7    11    1
    31    11    12    1
    32    11    13    1
    33     7     8   ar
    34     8     9   ar
    35     9    10    1
    36     3    40    1
    37    40    41    1
    38    41    42    1
    39    24    25    1
    40    25    20    1
    41     9     4   ar
    42    42    40    1
    43    27    30    1
    44    22    26    1
@<TRIPOS>MOLECULE
*****
 42 44 0 0 0
SMALL
GASTEIGER

@<TRIPOS>ATOM
      1 C         142.5777  142.4900  163.6645 C.2     1  UNL1        0.2302
      2 O         141.6705  143.6125  164.0733 O.2     1  UNL1       -0.2745
      3 N         142.8508  141.3623  164.6151 N.am    1  UNL1       -0.2582
      4 C         142.2168  141.3570  165.9746 C.ar    1  UNL1        0.0843
      5 C         140.9743  140.5532  166.2195 C.ar    1  UNL1        0.0537
      6 C         140.3403  140.5480  167.5789 C.ar    1  UNL1        0.1359
      7 C         140.9488  141.3466  168.6933 C.ar    1  UNL1        0.0138
      8 C         142.1913  142.1504  168.4484 C.ar    1  UNL1        0.0296
      9 C         142.8253  142.1556  167.0890 C.ar    1  UNL1        0.1536
     10 F         144.0679  142.9594  166.8440 F       1  UNL1       -0.2029
     11 C         140.3148  141.3413  170.0528 C.3     1  UNL1        0.0254
     12 C         140.3086  140.0851  170.8726 C.3     1  UNL1        0.0048
     13 C         139.6870  142.5921  170.5924 C.3     1  UNL1        0.0048
     14 O         139.0977  139.7441  167.8239 O.3     1  UNL1       -0.4756
     15 C         138.2088  139.3687  166.6755 C.3     1  UNL1        0.2080
     16 C         138.2722  137.9853  166.0992 C.3     1  UNL1        0.0793
     17 C         138.9732  137.7478  164.7944 C.3     1  UNL1        0.1461
     18 O         140.3709  137.2037  164.7821 O.3     1  UNL1       -0.3510
     19 C         141.1546  137.1783  163.5033 C.3     1  UNL1        0.1741
     20 C         143.0148  142.2175  159.7295 C.3     1  UNL1        0.0927
     21 C         144.4798  142.5058  159.5863 C.3     1  UNL1        0.0777
     22 N         145.3108  142.7889  160.8026 N.3     1  UNL1       -0.2967
     23 C         144.6768  142.7836  162.1619 C.3     1  UNL1        0.0777
     24 C         143.2117  142.4953  162.3051 C.3     1  UNL1        0.0932
     25 C         142.3807  142.2122  161.0888 C.3     1  UNL1        0.0210
     26 H         145.7188  143.7145  160.6716 H       1  UNL1        0.1233
     27 N         140.7836  142.4644  158.4215 N.am    1  UNL1       -0.3035
     28 C         142.1838  141.9344  158.5131 C.2     1  UNL1        0.2234
     29 O         142.7531  141.1214  157.3885 O.2     1  UNL1       -0.2751
     30 H         140.4099  142.9980  159.1597 H       1  UNL1        0.1495
     31 C         139.9526  142.1813  157.2052 C.3     1  UNL1        0.1011
     32 C         139.2513  140.8626  157.0662 C.3     1  UNL1        0.0221
     33 C         139.0464  139.9916  158.2701 C.3     1  UNL1        0.0017
     34 C         138.0205  140.3638  159.2993 C.3     1  UNL1        0.0001
     35 C         139.8674  138.7485  158.4449 C.3     1  UNL1        0.0001
     36 C         139.8229  143.2169  156.1279 C.3     1  UNL1        0.1615
     37 O         140.9985  144.0762  155.7682 O.3     1  UNL1       -0.3520
     38 C         142.0573  145.7712  157.4282 C.3     1  UNL1        0.0346
     39 C         141.1024  145.4706  156.3113 C.3     1  UNL1        0.1423
     40 C         143.7580  140.2398  164.2063 C.3     1  UNL1        0.0800
     41 C         144.8879  139.3037  164.5177 C.3     1  UNL1        0.0219
     42 C         144.1994  139.2319  163.1869 C.3     1  UNL1        0.0219
@<TRIPOS>BOND
     1    38    39    1
     2    39    37    1
     3    37    36    1
     4    31    36    1
     5    31    32    1
     6    32    33    1
     7    33    34    1
     8    33    35    1
     9    31    27    1
    10    27    28   am
    11    28    29    2
    12    20    28    1
    13    20    21    1
    14    21    22    1
    15    22    23    1
    16    23    24    1
    17    24     1    1
    18     1     2    2
    19     1     3   am
    20     3     4    1
    21     4     5   ar
    22     5     6   ar
    23     6    14    1
    24    14    15    1
    25    15    16    1
    26    16    17    1
    27    17    18    1
    28    18    19    1
    29     6     7   ar
    30     7    11    1
    31    11    12    1
    32    11    13    1
    33     7     8   ar
    34     8     9   ar
    35     9    10    1
    36     3    40    1
    37    40    41    1
    38    41    42    1
    39    24    25    1
    40    25    20    1
    41     9     4   ar
    42    42    40    1
    43    27    30    1
    44    22    26    1
@<TRIPOS>MOLECULE
*****
 42 44 0 0 0
SMALL
GASTEIGER

@<TRIPOS>ATOM
      1 C         140.5462  143.1812  163.3315 C.2     1  UNL1        0.2302
      2 O         139.4143  143.6049  164.2200 O.2     1  UNL1       -0.2745
      3 N         141.5807  142.2219  163.8407 N.am    1  UNL1       -0.2582
      4 C         141.4834  141.6861  165.2384 C.ar    1  UNL1        0.0843
      5 C         140.3681  140.7538  165.6083 C.ar    1  UNL1        0.0537
      6 C         140.2709  140.2181  167.0059 C.ar    1  UNL1        0.1359
      7 C         141.2889  140.6147  168.0337 C.ar    1  UNL1        0.0138
      8 C         142.4042  141.5470  167.6638 C.ar    1  UNL1        0.0296
      9 C         142.5015  142.0827  166.2661 C.ar    1  UNL1        0.1536
     10 F         143.6168  143.0151  165.8962 F       1  UNL1       -0.2029
     11 C         141.1917  140.0789  169.4314 C.3     1  UNL1        0.0254
     12 C         140.0741  140.5221  170.3284 C.3     1  UNL1        0.0048
     13 C         142.2119  139.0999  169.9321 C.3     1  UNL1        0.0048
     14 O         139.1556  139.2857  167.3759 O.3     1  UNL1       -0.4756
     15 C         138.2132  138.7876  166.3205 C.3     1  UNL1        0.2080
     16 C         138.5774  137.5894  165.4950 C.3     1  UNL1        0.0793
     17 C         138.9912  137.7625  164.0635 C.3     1  UNL1        0.1461
     18 O         140.3278  137.2609  163.6033 O.3     1  UNL1       -0.3510
     19 C         141.2958  138.2000  162.9465 C.3     1  UNL1        0.1741
     20 C         140.0596  143.5352  159.4088 C.3     1  UNL1        0.0927
     21 C         140.8381  144.7886  159.1385 C.3     1  UNL1        0.0777
     22 N         141.5193  145.5062  160.2659 N.3     1  UNL1       -0.2967
     23 C         141.4220  144.9704  161.6635 C.3     1  UNL1        0.0777
     24 C         140.6435  143.7170  161.9338 C.3     1  UNL1        0.0932
     25 C         139.9623  142.9995  160.8064 C.3     1  UNL1        0.0210
     26 H         141.1381  146.4520  160.2859 H       1  UNL1        0.1233
     27 N         140.1787  142.3303  157.1100 N.am    1  UNL1       -0.3035
     28 C         139.3784  142.8177  158.2813 C.2     1  UNL1        0.2234
     29 O         137.8968  142.5875  158.3251 O.2     1  UNL1       -0.2751
     30 H         141.1512  142.4814  157.0813 H       1  UNL1        0.1495
     31 C         139.4975  141.6128  155.9826 C.3     1  UNL1        0.1011
     32 C         139.0321  142.3776  154.7791 C.3     1  UNL1        0.0221
     33 C         138.4584  143.7540  154.9411 C.3     1  UNL1        0.0017
     34 C         139.3471  144.9562  154.8190 C.3     1  UNL1        0.0001
     35 C         136.9958  143.9283  155.2251 C.3     1  UNL1        0.0001
     36 C         139.2817  140.1303  156.0586 C.3     1  UNL1        0.1615
     37 O         138.6333  139.5279  157.2697 O.3     1  UNL1       -0.3520
     38 C         139.1341  139.3679  159.8140 C.3     1  UNL1        0.0346
     39 C         139.4798  139.0163  158.3974 C.3     1  UNL1        0.1423
     40 C         142.7126  141.7982  162.9522 C.3     1  UNL1        0.0800
     41 C         144.1696  141.8351  162.5977 C.3     1  UNL1        0.0219
     42 C         143.2160  141.0277  161.7678 C.3     1  UNL1        0.0219
@<TRIPOS>BOND
     1    38    39    1
     2    39    37    1
     3    37    36    1
     4    31    36    1
     5    31    32    1
     6    32    33    1
     7    33    34    1
     8    33    35    1
     9    31    27    1
    10    27    28   am
    11    28    29    2
    12    20    28    1
    13    20    21    1
    14    21    22    1
    15    22    23    1
    16    23    24    1
    17    24     1    1
    18     1     2    2
    19     1     3   am
    20     3     4    1
    21     4     5   ar
    22     5     6   ar
    23     6    14    1
    24    14    15    1
    25    15    16    1
    26    16    17    1
    27    17    18    1
    28    18    19    1
    29     6     7   ar
    30     7    11    1
    31    11    12    1
    32    11    13    1
    33     7     8   ar
    34     8     9   ar
    35     9    10    1
    36     3    40    1
    37    40    41    1
    38    41    42    1
    39    24    25    1
    40    25    20    1
    41     9     4   ar
    42    42    40    1
    43    27    30    1
    44    22    26    1
