@<TRIPOS>MOLECULE
*****
 29 32 0 0 0
SMALL
GASTEIGER

@<TRIPOS>ATOM
      1 C         143.3058  142.1974  157.7926 C.3     1  UNL1        0.0948
      2 C         142.2155  141.2448  158.1852 C.2     1  UNL1        0.2266
      3 O         141.0419  141.7347  158.9805 O.2     1  UNL1       -0.2748
      4 N         142.2990  139.8023  157.7825 N.am    1  UNL1       -0.2692
      5 C         143.4055  139.1705  156.9909 C.3     1  UNL1        0.1372
      6 C         143.0811  137.7161  156.8198 C.3     1  UNL1        0.1877
      7 C         141.7740  137.4490  157.5056 C.3     1  UNL1        0.0745
      8 C         141.2907  138.7384  158.1006 C.3     1  UNL1        0.1557
      9 C         140.0219  138.9300  158.8773 C.2     1  UNL1        0.2439
     10 O         138.7589  139.3175  158.1668 O.2     1  UNL1       -0.2731
     11 N         140.0160  138.7342  160.3644 N.am    1  UNL1       -0.2767
     12 C         141.3304  138.3481  160.9753 C.3     1  UNL1        0.0949
     13 C         141.6499  138.0828  162.4166 C.3     1  UNL1        0.0388
     14 C         140.7339  138.1382  163.6031 C.3     1  UNL1        0.0739
     15 N         139.2721  138.4725  163.6413 N.3     1  UNL1       -0.2725
     16 C         138.3654  138.8341  162.5025 C.3     1  UNL1        0.0938
     17 C         138.6964  138.9505  161.0441 C.3     1  UNL1        0.1107
     18 C         138.6325  138.4412  164.9978 C.3     1  UNL1        0.0576
     19 C         138.2336  137.3598  165.9576 C.3     1  UNL1        0.0160
     20 C         137.7281  138.3969  166.9161 C.3     1  UNL1        0.0028
     21 C         138.1271  139.4784  165.9563 C.3     1  UNL1        0.0160
     22 O         143.9169  136.7061  156.0908 O.3     1  UNL1       -0.4773
     23 C         143.4393  135.2900  155.9620 C.ar    1  UNL1        0.1386
     24 C         142.7804  134.8330  154.6943 C.ar    1  UNL1        0.0392
     25 C         142.3029  133.4170  154.5655 C.ar    1  UNL1        0.0327
     26 C         142.4841  132.4578  155.7043 C.ar    1  UNL1        0.1403
     27 F         142.0065  131.0417  155.5756 F       1  UNL1       -0.2042
     28 C         143.1430  132.9147  156.9721 C.ar    1  UNL1        0.0327
     29 C         143.6205  134.3309  157.1009 C.ar    1  UNL1        0.0392
@<TRIPOS>BOND
     1     1     2    1
     2     2     3    2
     3     2     4   am
     4     4     5    1
     5     5     6    1
     6     6    22    1
     7    22    23    1
     8    23    24   ar
     9    24    25   ar
    10    25    26   ar
    11    26    27    1
    12    26    28   ar
    13    28    29   ar
    14     6     7    1
    15     7     8    1
    16     8     9    1
    17     9    10    2
    18     9    11   am
    19    11    12    1
    20    12    13    1
    21    13    14    1
    22    14    15    1
    23    15    18    1
    24    18    19    1
    25    19    20    1
    26    20    21    1
    27    15    16    1
    28    16    17    1
    29     8     4    1
    30    17    11    1
    31    29    23   ar
    32    21    18    1
@<TRIPOS>MOLECULE
*****
 29 32 0 0 0
SMALL
GASTEIGER

@<TRIPOS>ATOM
      1 C         138.0537  144.1510  163.0023 C.3     1  UNL1        0.0948
      2 C         138.1114  142.8087  162.3352 C.2     1  UNL1        0.2266
      3 O         138.0682  142.7123  160.8389 O.2     1  UNL1       -0.2748
      4 N         138.2124  141.5627  163.1644 N.am    1  UNL1       -0.2692
      5 C         138.2650  141.5024  164.6622 C.3     1  UNL1        0.1372
      6 C         138.3636  140.0608  165.0648 C.3     1  UNL1        0.1877
      7 C         138.3720  139.2302  163.8158 C.3     1  UNL1        0.0745
      8 C         138.2785  140.1585  162.6412 C.3     1  UNL1        0.1557
      9 C         138.2553  139.7536  161.1971 C.2     1  UNL1        0.2439
     10 O         136.9714  139.8083  160.4234 O.2     1  UNL1       -0.2731
     11 N         139.5159  139.2939  160.5267 N.am    1  UNL1       -0.2767
     12 C         140.7429  139.2766  161.3894 C.3     1  UNL1        0.0949
     13 C         142.1398  138.8735  161.0207 C.3     1  UNL1        0.0388
     14 C         142.6549  138.3880  159.6981 C.3     1  UNL1        0.0739
     15 N         141.9002  138.1858  158.4177 N.3     1  UNL1       -0.2725
     16 C         140.4441  138.4192  158.1436 C.3     1  UNL1        0.0938
     17 C         139.3829  138.9123  159.0822 C.3     1  UNL1        0.1107
     18 C         142.7085  137.6840  157.2581 C.3     1  UNL1        0.0576
     19 C         143.1290  136.3313  156.7647 C.3     1  UNL1        0.0160
     20 C         143.8517  136.9742  155.6182 C.3     1  UNL1        0.0028
     21 C         143.4312  138.3269  156.1117 C.3     1  UNL1        0.0160
     22 O         138.4404  139.5410  166.4698 O.3     1  UNL1       -0.4773
     23 C         139.6672  139.7908  167.2959 C.ar    1  UNL1        0.1386
     24 C         139.5339  140.1698  168.7411 C.ar    1  UNL1        0.0392
     25 C         140.7607  140.4195  169.5672 C.ar    1  UNL1        0.0327
     26 C         142.1209  140.2903  168.9482 C.ar    1  UNL1        0.1403
     27 F         143.3477  140.5401  169.7743 F       1  UNL1       -0.2042
     28 C         142.2542  139.9114  167.5030 C.ar    1  UNL1        0.0327
     29 C         141.0273  139.6616  166.6769 C.ar    1  UNL1        0.0392
@<TRIPOS>BOND
     1     1     2    1
     2     2     3    2
     3     2     4   am
     4     4     5    1
     5     5     6    1
     6     6    22    1
     7    22    23    1
     8    23    24   ar
     9    24    25   ar
    10    25    26   ar
    11    26    27    1
    12    26    28   ar
    13    28    29   ar
    14     6     7    1
    15     7     8    1
    16     8     9    1
    17     9    10    2
    18     9    11   am
    19    11    12    1
    20    12    13    1
    21    13    14    1
    22    14    15    1
    23    15    18    1
    24    18    19    1
    25    19    20    1
    26    20    21    1
    27    15    16    1
    28    16    17    1
    29     8     4    1
    30    17    11    1
    31    29    23   ar
    32    21    18    1
@<TRIPOS>MOLECULE
*****
 29 32 0 0 0
SMALL
GASTEIGER

@<TRIPOS>ATOM
      1 C         137.8262  144.4085  165.0366 C.3     1  UNL1        0.0948
      2 C         138.5923  144.3588  163.7479 C.2     1  UNL1        0.2266
      3 O         137.9201  144.7348  162.4608 O.2     1  UNL1       -0.2748
      4 N         140.0307  143.9329  163.7464 N.am    1  UNL1       -0.2692
      5 C         140.8322  143.5303  164.9486 C.3     1  UNL1        0.1372
      6 C         142.2168  143.1835  164.4877 C.3     1  UNL1        0.1877
      7 C         142.2710  143.3719  163.0005 C.3     1  UNL1        0.0745
      8 C         140.9198  143.8351  162.5424 C.3     1  UNL1        0.1557
      9 C         140.5270  144.1458  161.1285 C.2     1  UNL1        0.2439
     10 O         140.8996  145.4648  160.5191 O.2     1  UNL1       -0.2731
     11 N         139.7614  143.1375  160.3240 N.am    1  UNL1       -0.2767
     12 C         139.4398  141.8522  161.0273 C.3     1  UNL1        0.0949
     13 C         138.6961  140.6599  160.5029 C.3     1  UNL1        0.0388
     14 C         138.0903  140.4582  159.1455 C.3     1  UNL1        0.0739
     15 N         138.0786  141.3992  157.9774 N.3     1  UNL1       -0.2725
     16 C         138.6698  142.7741  157.8781 C.3     1  UNL1        0.0938
     17 C         139.4188  143.5478  158.9225 C.3     1  UNL1        0.1107
     18 C         137.3838  140.8990  156.7456 C.3     1  UNL1        0.0576
     19 C         135.9557  140.8103  156.2956 C.3     1  UNL1        0.0160
     20 C         136.4013  140.1916  155.0038 C.3     1  UNL1        0.0028
     21 C         137.8295  140.2803  155.4539 C.3     1  UNL1        0.0160
     22 O         143.3486  142.7283  165.3606 O.3     1  UNL1       -0.4773
     23 C         143.1018  141.7206  166.4439 C.ar    1  UNL1        0.1386
     24 C         142.9234  140.2727  166.0948 C.ar    1  UNL1        0.0392
     25 C         142.6766  139.2650  167.1781 C.ar    1  UNL1        0.0327
     26 C         142.6082  139.7051  168.6104 C.ar    1  UNL1        0.1403
     27 F         142.3614  138.6973  169.6937 F       1  UNL1       -0.2042
     28 C         142.7867  141.1529  168.9595 C.ar    1  UNL1        0.0327
     29 C         143.0335  142.1607  167.8762 C.ar    1  UNL1        0.0392
@<TRIPOS>BOND
     1     1     2    1
     2     2     3    2
     3     2     4   am
     4     4     5    1
     5     5     6    1
     6     6    22    1
     7    22    23    1
     8    23    24   ar
     9    24    25   ar
    10    25    26   ar
    11    26    27    1
    12    26    28   ar
    13    28    29   ar
    14     6     7    1
    15     7     8    1
    16     8     9    1
    17     9    10    2
    18     9    11   am
    19    11    12    1
    20    12    13    1
    21    13    14    1
    22    14    15    1
    23    15    18    1
    24    18    19    1
    25    19    20    1
    26    20    21    1
    27    15    16    1
    28    16    17    1
    29     8     4    1
    30    17    11    1
    31    29    23   ar
    32    21    18    1
@<TRIPOS>MOLECULE
*****
 29 32 0 0 0
SMALL
GASTEIGER

@<TRIPOS>ATOM
      1 C         139.9705  146.0410  162.1024 C.3     1  UNL1        0.0948
      2 C         139.4778  144.6243  162.1239 C.2     1  UNL1        0.2266
      3 O         138.9457  143.9961  160.8701 O.2     1  UNL1       -0.2748
      4 N         139.5174  143.8358  163.3994 N.am    1  UNL1       -0.2692
      5 C         140.0193  144.3275  164.7246 C.3     1  UNL1        0.1372
      6 C         139.8742  143.2129  165.7178 C.3     1  UNL1        0.1877
      7 C         139.2825  142.0322  165.0064 C.3     1  UNL1        0.0745
      8 C         139.0620  142.4173  163.5735 C.3     1  UNL1        0.1557
      9 C         138.4871  141.5381  162.5027 C.2     1  UNL1        0.2439
     10 O         137.0018  141.3558  162.3993 O.2     1  UNL1       -0.2731
     11 N         139.3974  140.8413  161.5354 N.am    1  UNL1       -0.2767
     12 C         140.8641  141.0911  161.7264 C.3     1  UNL1        0.0949
     13 C         142.0162  140.5481  160.9343 C.3     1  UNL1        0.0388
     14 C         141.9863  139.6211  159.7553 C.3     1  UNL1        0.0739
     15 N         140.7968  139.0083  159.0774 N.3     1  UNL1       -0.2725
     16 C         139.3435  139.1710  159.4110 C.3     1  UNL1        0.0938
     17 C         138.7207  139.9868  160.5050 C.3     1  UNL1        0.1107
     18 C         141.1009  138.1145  157.9117 C.3     1  UNL1        0.0576
     19 C         140.2788  137.3977  156.8821 C.3     1  UNL1        0.0160
     20 C         141.5309  136.8506  156.2633 C.3     1  UNL1        0.0028
     21 C         142.3530  137.5674  157.2930 C.3     1  UNL1        0.0160
     22 O         140.2539  143.2689  167.1679 O.3     1  UNL1       -0.4773
     23 C         140.8233  142.0556  167.8415 C.ar    1  UNL1        0.1386
     24 C         142.2774  141.7229  167.6834 C.ar    1  UNL1        0.0392
     25 C         142.8467  140.5097  168.3570 C.ar    1  UNL1        0.0327
     26 C         141.9620  139.6290  169.1887 C.ar    1  UNL1        0.1403
     27 F         142.5314  138.4157  169.8623 F       1  UNL1       -0.2042
     28 C         140.5079  139.9617  169.3468 C.ar    1  UNL1        0.0327
     29 C         139.9386  141.1750  168.6732 C.ar    1  UNL1        0.0392
@<TRIPOS>BOND
     1     1     2    1
     2     2     3    2
     3     2     4   am
     4     4     5    1
     5     5     6    1
     6     6    22    1
     7    22    23    1
     8    23    24   ar
     9    24    25   ar
    10    25    26   ar
    11    26    27    1
    12    26    28   ar
    13    28    29   ar
    14     6     7    1
    15     7     8    1
    16     8     9    1
    17     9    10    2
    18     9    11   am
    19    11    12    1
    20    12    13    1
    21    13    14    1
    22    14    15    1
    23    15    18    1
    24    18    19    1
    25    19    20    1
    26    20    21    1
    27    15    16    1
    28    16    17    1
    29     8     4    1
    30    17    11    1
    31    29    23   ar
    32    21    18    1
@<TRIPOS>MOLECULE
*****
 29 32 0 0 0
SMALL
GASTEIGER

@<TRIPOS>ATOM
      1 C         145.7718  141.7773  163.3437 C.3     1  UNL1        0.0948
      2 C         144.5046  142.5542  163.1418 C.2     1  UNL1        0.2266
      3 O         144.5150  143.8039  162.3122 O.2     1  UNL1       -0.2748
      4 N         143.2269  142.0813  163.7695 N.am    1  UNL1       -0.2692
      5 C         143.0630  140.8568  164.6202 C.3     1  UNL1        0.1372
      6 C         141.6237  140.7685  165.0331 C.3     1  UNL1        0.1877
      7 C         140.8980  141.9386  164.4376 C.3     1  UNL1        0.0745
      8 C         141.8890  142.7499  163.6566 C.3     1  UNL1        0.1557
      9 C         141.5936  144.0087  162.8963 C.2     1  UNL1        0.2439
     10 O         141.6936  145.3395  163.5812 O.2     1  UNL1       -0.2731
     11 N         141.1984  143.9368  161.4512 N.am    1  UNL1       -0.2767
     12 C         141.1284  142.5586  160.8633 C.3     1  UNL1        0.0949
     13 C         140.7682  142.1558  159.4641 C.3     1  UNL1        0.0388
     14 C         140.3888  143.0319  158.3070 C.3     1  UNL1        0.0739
     15 N         140.2760  144.5270  158.2635 N.3     1  UNL1       -0.2725
     16 C         140.5148  145.5153  159.3662 C.3     1  UNL1        0.0938
     17 C         140.9252  145.2527  160.7849 C.3     1  UNL1        0.1107
     18 C         139.8709  145.1110  156.9425 C.3     1  UNL1        0.0576
     19 C         139.8573  146.4896  156.3518 C.3     1  UNL1        0.0160
     20 C         139.2981  145.9368  155.0745 C.3     1  UNL1        0.0028
     21 C         139.3117  144.5581  155.6652 C.3     1  UNL1        0.0160
     22 O         141.0165  139.6982  165.8910 O.3     1  UNL1       -0.4773
     23 C         140.9202  139.8915  167.3753 C.ar    1  UNL1        0.1386
     24 C         139.5953  140.2012  168.0069 C.ar    1  UNL1        0.0392
     25 C         139.4990  140.3944  169.4912 C.ar    1  UNL1        0.0327
     26 C         140.7274  140.2779  170.3441 C.ar    1  UNL1        0.1403
     27 F         140.6311  140.4712  171.8284 F       1  UNL1       -0.2042
     28 C         142.0522  139.9682  169.7125 C.ar    1  UNL1        0.0327
     29 C         142.1485  139.7750  168.2281 C.ar    1  UNL1        0.0392
@<TRIPOS>BOND
     1     1     2    1
     2     2     3    2
     3     2     4   am
     4     4     5    1
     5     5     6    1
     6     6    22    1
     7    22    23    1
     8    23    24   ar
     9    24    25   ar
    10    25    26   ar
    11    26    27    1
    12    26    28   ar
    13    28    29   ar
    14     6     7    1
    15     7     8    1
    16     8     9    1
    17     9    10    2
    18     9    11   am
    19    11    12    1
    20    12    13    1
    21    13    14    1
    22    14    15    1
    23    15    18    1
    24    18    19    1
    25    19    20    1
    26    20    21    1
    27    15    16    1
    28    16    17    1
    29     8     4    1
    30    17    11    1
    31    29    23   ar
    32    21    18    1
@<TRIPOS>MOLECULE
*****
 29 32 0 0 0
SMALL
GASTEIGER

@<TRIPOS>ATOM
      1 C         137.4381  141.3110  162.9222 C.3     1  UNL1        0.0948
      2 C         138.1923  142.4902  162.3831 C.2     1  UNL1        0.2266
      3 O         137.6792  143.2215  161.1781 O.2     1  UNL1       -0.2748
      4 N         139.4596  142.9382  163.0489 N.am    1  UNL1       -0.2692
      5 C         140.0919  142.3091  164.2549 C.3     1  UNL1        0.1372
      6 C         141.3401  143.0759  164.5770 C.3     1  UNL1        0.1877
      7 C         141.4793  144.1790  163.5701 C.3     1  UNL1        0.0745
      8 C         140.3170  144.0938  162.6256 C.3     1  UNL1        0.1557
      9 C         140.0579  145.0044  161.4623 C.2     1  UNL1        0.2439
     10 O         139.1553  146.1914  161.6254 O.2     1  UNL1       -0.2731
     11 N         140.7012  144.7282  160.1357 N.am    1  UNL1       -0.2767
     12 C         141.5846  143.5173  160.0803 C.3     1  UNL1        0.0949
     13 C         142.3611  142.9785  158.9156 C.3     1  UNL1        0.0388
     14 C         142.4458  143.5176  157.5183 C.3     1  UNL1        0.0739
     15 N         141.7751  144.7286  156.9409 N.3     1  UNL1       -0.2725
     16 C         140.8539  145.6996  157.6180 C.3     1  UNL1        0.0938
     17 C         140.3760  145.6994  159.0398 C.3     1  UNL1        0.1107
     18 C         142.0637  145.0052  155.4951 C.3     1  UNL1        0.0576
     19 C         143.2244  144.7550  154.5785 C.3     1  UNL1        0.0160
     20 C         142.4719  145.3963  153.4505 C.3     1  UNL1        0.0028
     21 C         141.3111  145.6466  154.3672 C.3     1  UNL1        0.0160
     22 O         142.2836  142.7899  165.7076 O.3     1  UNL1       -0.4773
     23 C         142.7206  141.3814  165.9817 C.ar    1  UNL1        0.1386
     24 C         142.3685  140.7271  167.2848 C.ar    1  UNL1        0.0392
     25 C         142.8054  139.3187  167.5589 C.ar    1  UNL1        0.0327
     26 C         143.5946  138.5645  166.5302 C.ar    1  UNL1        0.1403
     27 F         144.0316  137.1560  166.8043 F       1  UNL1       -0.2042
     28 C         143.9468  139.2188  165.2272 C.ar    1  UNL1        0.0327
     29 C         143.5097  140.6273  164.9530 C.ar    1  UNL1        0.0392
@<TRIPOS>BOND
     1     1     2    1
     2     2     3    2
     3     2     4   am
     4     4     5    1
     5     5     6    1
     6     6    22    1
     7    22    23    1
     8    23    24   ar
     9    24    25   ar
    10    25    26   ar
    11    26    27    1
    12    26    28   ar
    13    28    29   ar
    14     6     7    1
    15     7     8    1
    16     8     9    1
    17     9    10    2
    18     9    11   am
    19    11    12    1
    20    12    13    1
    21    13    14    1
    22    14    15    1
    23    15    18    1
    24    18    19    1
    25    19    20    1
    26    20    21    1
    27    15    16    1
    28    16    17    1
    29     8     4    1
    30    17    11    1
    31    29    23   ar
    32    21    18    1
@<TRIPOS>MOLECULE
*****
 29 32 0 0 0
SMALL
GASTEIGER

@<TRIPOS>ATOM
      1 C         140.8434  137.0076  163.5128 C.3     1  UNL1        0.0948
      2 C         140.1239  138.3001  163.2636 C.2     1  UNL1        0.2266
      3 O         139.7753  138.7064  161.8624 O.2     1  UNL1       -0.2748
      4 N         139.7531  139.1862  164.4158 N.am    1  UNL1       -0.2692
      5 C         140.0339  138.9136  165.8637 C.3     1  UNL1        0.1372
      6 C         139.4907  140.0594  166.6650 C.3     1  UNL1        0.1877
      7 C         138.8741  141.0402  165.7121 C.3     1  UNL1        0.0745
      8 C         139.0363  140.5005  164.3220 C.3     1  UNL1        0.1557
      9 C         138.5644  141.1594  163.0598 C.2     1  UNL1        0.2439
     10 O         137.1263  141.0486  162.6483 O.2     1  UNL1       -0.2731
     11 N         139.5307  141.9292  162.2092 N.am    1  UNL1       -0.2767
     12 C         140.9436  141.9782  162.7106 C.3     1  UNL1        0.0949
     13 C         142.1310  142.6582  162.0964 C.3     1  UNL1        0.0388
     14 C         142.1989  143.4574  160.8287 C.3     1  UNL1        0.0739
     15 N         141.0961  143.7738  159.8624 N.3     1  UNL1       -0.2725
     16 C         139.6531  143.3693  159.9251 C.3     1  UNL1        0.0938
     17 C         138.9564  142.5483  160.9695 C.3     1  UNL1        0.1107
     18 C         141.4883  144.6047  158.6767 C.3     1  UNL1        0.0576
     19 C         142.5934  144.5526  157.6639 C.3     1  UNL1        0.0160
     20 C         142.0429  145.7797  156.9999 C.3     1  UNL1        0.0028
     21 C         140.9376  145.8319  158.0128 C.3     1  UNL1        0.0160
     22 O         139.5531  140.1998  168.1571 O.3     1  UNL1       -0.4773
     23 C         140.6483  141.0066  168.7894 C.ar    1  UNL1        0.1386
     24 C         140.4014  142.4356  169.1729 C.ar    1  UNL1        0.0392
     25 C         141.4964  143.2424  169.8051 C.ar    1  UNL1        0.0327
     26 C         142.8385  142.6203  170.0538 C.ar    1  UNL1        0.1403
     27 F         143.9336  143.4271  170.6861 F       1  UNL1       -0.2042
     28 C         143.0854  141.1914  169.6703 C.ar    1  UNL1        0.0327
     29 C         141.9903  140.3846  169.0381 C.ar    1  UNL1        0.0392
@<TRIPOS>BOND
     1     1     2    1
     2     2     3    2
     3     2     4   am
     4     4     5    1
     5     5     6    1
     6     6    22    1
     7    22    23    1
     8    23    24   ar
     9    24    25   ar
    10    25    26   ar
    11    26    27    1
    12    26    28   ar
    13    28    29   ar
    14     6     7    1
    15     7     8    1
    16     8     9    1
    17     9    10    2
    18     9    11   am
    19    11    12    1
    20    12    13    1
    21    13    14    1
    22    14    15    1
    23    15    18    1
    24    18    19    1
    25    19    20    1
    26    20    21    1
    27    15    16    1
    28    16    17    1
    29     8     4    1
    30    17    11    1
    31    29    23   ar
    32    21    18    1
@<TRIPOS>MOLECULE
*****
 29 32 0 0 0
SMALL
GASTEIGER

@<TRIPOS>ATOM
      1 C         144.9302  140.0494  163.9010 C.3     1  UNL1        0.0948
      2 C         143.5879  139.5829  163.4206 C.2     1  UNL1        0.2266
      3 O         143.4002  139.1892  161.9854 O.2     1  UNL1       -0.2748
      4 N         142.4333  139.5099  164.3755 N.am    1  UNL1       -0.2692
      5 C         142.4693  139.8689  165.8314 C.3     1  UNL1        0.1372
      6 C         141.0983  139.6461  166.3977 C.3     1  UNL1        0.1877
      7 C         140.2150  139.1494  165.2917 C.3     1  UNL1        0.0745
      8 C         141.0402  139.0653  164.0419 C.3     1  UNL1        0.1557
      9 C         140.5569  138.6155  162.6950 C.2     1  UNL1        0.2439
     10 O         140.6776  137.1741  162.2978 O.2     1  UNL1       -0.2731
     11 N         139.9528  139.6070  161.7453 N.am    1  UNL1       -0.2767
     12 C         139.8793  141.0211  162.2404 C.3     1  UNL1        0.0949
     13 C         139.3370  142.2307  161.5387 C.3     1  UNL1        0.0388
     14 C         138.7342  142.3251  160.1683 C.3     1  UNL1        0.0739
     15 N         138.5249  141.2332  159.1614 N.3     1  UNL1       -0.2725
     16 C         138.8667  139.7772  159.2761 C.3     1  UNL1        0.0938
     17 C         139.5022  139.0535  160.4261 C.3     1  UNL1        0.1107
     18 C         137.8899  141.6528  157.8688 C.3     1  UNL1        0.0576
     19 C         138.0054  142.8473  156.9690 C.3     1  UNL1        0.0160
     20 C         136.9918  142.2463  156.0410 C.3     1  UNL1        0.0028
     21 C         136.8763  141.0517  156.9408 C.3     1  UNL1        0.0160
     22 O         140.6834  139.8790  167.8203 O.3     1  UNL1       -0.4773
     23 C         141.3863  140.9151  168.6465 C.ar    1  UNL1        0.1386
     24 C         142.7753  140.6568  169.1503 C.ar    1  UNL1        0.0392
     25 C         143.4782  141.6927  169.9765 C.ar    1  UNL1        0.0327
     26 C         142.7921  142.9870  170.2989 C.ar    1  UNL1        0.1403
     27 F         143.4949  144.0231  171.1251 F       1  UNL1       -0.2042
     28 C         141.4030  143.2453  169.7951 C.ar    1  UNL1        0.0327
     29 C         140.7001  142.2093  168.9689 C.ar    1  UNL1        0.0392
@<TRIPOS>BOND
     1     1     2    1
     2     2     3    2
     3     2     4   am
     4     4     5    1
     5     5     6    1
     6     6    22    1
     7    22    23    1
     8    23    24   ar
     9    24    25   ar
    10    25    26   ar
    11    26    27    1
    12    26    28   ar
    13    28    29   ar
    14     6     7    1
    15     7     8    1
    16     8     9    1
    17     9    10    2
    18     9    11   am
    19    11    12    1
    20    12    13    1
    21    13    14    1
    22    14    15    1
    23    15    18    1
    24    18    19    1
    25    19    20    1
    26    20    21    1
    27    15    16    1
    28    16    17    1
    29     8     4    1
    30    17    11    1
    31    29    23   ar
    32    21    18    1
@<TRIPOS>MOLECULE
*****
 29 32 0 0 0
SMALL
GASTEIGER

@<TRIPOS>ATOM
      1 C         141.0306  144.9289  163.5816 C.3     1  UNL1        0.0948
      2 C         140.2285  143.7371  163.1499 C.2     1  UNL1        0.2266
      3 O         139.7433  143.6323  161.7344 O.2     1  UNL1       -0.2748
      4 N         139.9115  142.6500  164.1338 N.am    1  UNL1       -0.2692
      5 C         140.3264  142.6167  165.5748 C.3     1  UNL1        0.1372
      6 C         139.7953  141.3517  166.1810 C.3     1  UNL1        0.1877
      7 C         139.0521  140.6031  165.1145 C.3     1  UNL1        0.0745
      8 C         139.1240  141.4056  163.8492 C.3     1  UNL1        0.1557
      9 C         138.5151  141.0295  162.5310 C.2     1  UNL1        0.2439
     10 O         137.1075  141.4375  162.2113 O.2     1  UNL1       -0.2731
     11 N         139.3138  140.2455  161.5323 N.am    1  UNL1       -0.2767
     12 C         140.7093  139.8886  161.9510 C.3     1  UNL1        0.0949
     13 C         141.7470  139.1201  161.1878 C.3     1  UNL1        0.0388
     14 C         141.6455  138.5186  159.8174 C.3     1  UNL1        0.0739
     15 N         140.4813  138.5371  158.8718 N.3     1  UNL1       -0.2725
     16 C         139.1311  139.1616  159.0630 C.3     1  UNL1        0.0938
     17 C         138.6114  139.9219  160.2471 C.3     1  UNL1        0.1107
     18 C         140.6958  137.8387  157.5617 C.3     1  UNL1        0.0576
     19 C         139.8309  137.5093  156.3813 C.3     1  UNL1        0.0160
     20 C         140.9991  136.8510  155.7091 C.3     1  UNL1        0.0028
     21 C         141.8640  137.1804  156.8896 C.3     1  UNL1        0.0160
     22 O         139.9757  140.9122  167.6038 O.3     1  UNL1       -0.4773
     23 C         140.9128  141.6588  168.5063 C.ar    1  UNL1        0.1386
     24 C         140.4064  142.8060  169.3295 C.ar    1  UNL1        0.0392
     25 C         141.3434  143.5526  170.2320 C.ar    1  UNL1        0.0327
     26 C         142.7868  143.1521  170.3113 C.ar    1  UNL1        0.1403
     27 F         143.7238  143.8988  171.2138 F       1  UNL1       -0.2042
     28 C         143.2931  142.0050  169.4881 C.ar    1  UNL1        0.0327
     29 C         142.3561  141.2584  168.5856 C.ar    1  UNL1        0.0392
@<TRIPOS>BOND
     1     1     2    1
     2     2     3    2
     3     2     4   am
     4     4     5    1
     5     5     6    1
     6     6    22    1
     7    22    23    1
     8    23    24   ar
     9    24    25   ar
    10    25    26   ar
    11    26    27    1
    12    26    28   ar
    13    28    29   ar
    14     6     7    1
    15     7     8    1
    16     8     9    1
    17     9    10    2
    18     9    11   am
    19    11    12    1
    20    12    13    1
    21    13    14    1
    22    14    15    1
    23    15    18    1
    24    18    19    1
    25    19    20    1
    26    20    21    1
    27    15    16    1
    28    16    17    1
    29     8     4    1
    30    17    11    1
    31    29    23   ar
    32    21    18    1
