@<TRIPOS>MOLECULE
*****
 34 38 0 0 0
SMALL
GASTEIGER

@<TRIPOS>ATOM
      1 C         138.8532  141.0178  163.4891 C.3     1  UNL1        0.0904
      2 C         138.0407  140.8647  164.7406 C.3     1  UNL1        0.0386
      3 C         138.1001  139.5854  165.5216 C.3     1  UNL1        0.0594
      4 C         138.4571  138.1951  165.9571 C.3     1  UNL1        0.0174
      5 C         139.4296  137.6333  164.9628 C.3     1  UNL1        0.0174
      6 C         139.6737  138.6764  163.9128 C.3     1  UNL1        0.0594
      7 C         139.7251  139.8916  163.0185 C.3     1  UNL1        0.0386
      8 N         138.8520  139.8828  164.2581 N.3     1  UNL1       -0.2750
      9 C         138.2602  143.9852  164.7108 C.3     1  UNL1        0.0738
     10 C         138.5212  143.6611  163.2696 C.ar    1  UNL1        0.1433
     11 N         138.5555  144.6440  162.1371 N.ar    1  UNL1       -0.1337
     12 N         138.8493  143.8875  160.8756 N.ar    1  UNL1       -0.1337
     13 C         138.9966  142.4371  161.2284 C.ar    1  UNL1        0.1425
     14 N         138.7938  142.2971  162.7081 N.ar    1  UNL1       -0.3039
     15 C         139.2943  141.3223  160.2700 C.3     1  UNL1        0.0588
     16 C         140.6854  141.1414  159.7388 C.3     1  UNL1        0.0080
     17 C         138.2010  140.3884  159.8427 C.3     1  UNL1        0.0080
     18 C         138.7925  141.1621  163.4772 C.3     1  UNL1        0.0741
     19 C         140.0606  141.8338  163.0403 C.3     1  UNL1        0.0419
     20 C         141.0606  142.2857  164.0628 C.3     1  UNL1        0.1014
     21 C         142.1959  143.1787  163.6581 C.ar    1  UNL1        0.0251
     22 C         142.3207  144.6412  163.9671 C.ar    1  UNL1        0.0043
     23 C         143.6076  145.1322  163.3733 C.ar    1  UNL1        0.0072
     24 C         144.2782  143.9732  162.6973 C.ar    1  UNL1        0.0352
     25 S         143.4058  142.7658  162.8733 S.2     1  UNL1       -0.0892
     26 N         140.9255  141.8447  165.4902 N.am    1  UNL1       -0.3017
     27 C         141.7464  140.6982  166.0019 C.2     1  UNL1        0.2222
     28 O         142.7024  139.9927  165.0862 O.2     1  UNL1       -0.2751
     29 H         140.2981  142.3077  166.0912 H       1  UNL1        0.1497
     30 C         141.6112  140.2572  167.4292 C.3     1  UNL1        0.0765
     31 C         140.4228  140.4885  168.3147 C.3     1  UNL1        0.0091
     32 C         140.7179  139.8818  169.6544 C.3     1  UNL1        0.0005
     33 C         142.0887  139.2755  169.5969 C.3     1  UNL1        0.0005
     34 C         142.6408  139.5075  168.2216 C.3     1  UNL1        0.0091
@<TRIPOS>BOND
     1     9    10    1
     2    10    11   ar
     3    11    12   ar
     4    12    13   ar
     5    13    15    1
     6    15    16    1
     7    15    17    1
     8    13    14   ar
     9     1    14    1
    10     1     2    1
    11     3     2    1
    12     3     4    1
    13     4     5    1
    14     6     5    1
    15     6     7    1
    16     6     8    1
    17     8    18    1
    18    18    19    1
    19    20    19    1
    20    20    26    1
    21    26    27   am
    22    27    28    2
    23    27    30    1
    24    30    31    1
    25    31    32    1
    26    32    33    1
    27    33    34    1
    28    20    21    1
    29    21    22   ar
    30    22    23   ar
    31    23    24   ar
    32    24    25   ar
    33    14    10   ar
    34     7     1    1
    35    34    30    1
    36    25    21   ar
    37     8     3    1
    38    26    29    1
@<TRIPOS>MOLECULE
*****
 34 38 0 0 0
SMALL
GASTEIGER

@<TRIPOS>ATOM
      1 C         141.4163  143.1132  163.2415 C.3     1  UNL1        0.0904
      2 C         142.0569  144.1148  164.1561 C.3     1  UNL1        0.0386
      3 C         143.4298  143.8598  164.7038 C.3     1  UNL1        0.0594
      4 C         144.7520  143.2144  164.9961 C.3     1  UNL1        0.0174
      5 C         144.8049  141.9106  164.2563 C.3     1  UNL1        0.0174
      6 C         143.5155  141.7502  163.5068 C.3     1  UNL1        0.0594
      7 C         142.1487  141.8565  162.8747 C.3     1  UNL1        0.0386
      8 N         142.6657  142.9549  163.7833 N.3     1  UNL1       -0.2750
      9 C         139.0021  144.6871  164.7727 C.3     1  UNL1        0.0738
     10 C         138.9336  144.0916  163.3976 C.ar    1  UNL1        0.1433
     11 N         137.7435  144.1150  162.4848 N.ar    1  UNL1       -0.1337
     12 N         138.1177  143.4061  161.2171 N.ar    1  UNL1       -0.1337
     13 C         139.5390  142.9445  161.3461 C.ar    1  UNL1        0.1425
     14 N         140.0433  143.3682  162.6938 N.ar    1  UNL1       -0.3039
     15 C         140.3191  142.1915  160.3096 C.3     1  UNL1        0.0588
     16 C         140.0151  140.7466  160.0452 C.3     1  UNL1        0.0080
     17 C         141.4032  142.8833  159.5374 C.3     1  UNL1        0.0080
     18 C         141.2927  143.2099  163.2356 C.3     1  UNL1        0.0741
     19 C         140.2385  142.1469  163.3292 C.3     1  UNL1        0.0419
     20 C         140.0768  141.3607  164.5963 C.3     1  UNL1        0.1014
     21 C         139.6244  139.9316  164.5396 C.ar    1  UNL1        0.0251
     22 C         139.0199  139.1526  165.6700 C.ar    1  UNL1        0.0043
     23 C         138.7190  137.7702  165.1715 C.ar    1  UNL1        0.0072
     24 C         139.1377  137.6949  163.7331 C.ar    1  UNL1        0.0352
     25 S         139.6972  139.0306  163.3425 S.2     1  UNL1       -0.0892
     26 N         140.3674  142.0033  165.9202 N.am    1  UNL1       -0.3017
     27 C         141.5037  141.5044  166.7628 C.2     1  UNL1        0.2222
     28 O         142.3494  140.3628  166.2815 O.2     1  UNL1       -0.2751
     29 H         139.8124  142.7526  166.2361 H       1  UNL1        0.1497
     30 C         141.7943  142.1470  168.0866 C.3     1  UNL1        0.0765
     31 C         140.8249  142.9373  168.9147 C.3     1  UNL1        0.0091
     32 C         141.5368  143.3910  170.1547 C.3     1  UNL1        0.0005
     33 C         142.9461  142.8811  170.0929 C.3     1  UNL1        0.0005
     34 C         143.1052  142.1122  168.8147 C.3     1  UNL1        0.0091
@<TRIPOS>BOND
     1     9    10    1
     2    10    11   ar
     3    11    12   ar
     4    12    13   ar
     5    13    15    1
     6    15    16    1
     7    15    17    1
     8    13    14   ar
     9     1    14    1
    10     1     2    1
    11     3     2    1
    12     3     4    1
    13     4     5    1
    14     6     5    1
    15     6     7    1
    16     6     8    1
    17     8    18    1
    18    18    19    1
    19    20    19    1
    20    20    26    1
    21    26    27   am
    22    27    28    2
    23    27    30    1
    24    30    31    1
    25    31    32    1
    26    32    33    1
    27    33    34    1
    28    20    21    1
    29    21    22   ar
    30    22    23   ar
    31    23    24   ar
    32    24    25   ar
    33    14    10   ar
    34     7     1    1
    35    34    30    1
    36    25    21   ar
    37     8     3    1
    38    26    29    1
@<TRIPOS>MOLECULE
*****
 34 38 0 0 0
SMALL
GASTEIGER

@<TRIPOS>ATOM
      1 C         140.7452  143.1623  164.7350 C.3     1  UNL1        0.0904
      2 C         139.9801  143.2062  166.0244 C.3     1  UNL1        0.0386
      3 C         140.3267  142.2592  167.1348 C.3     1  UNL1        0.0594
      4 C         140.9912  141.1739  167.9289 C.3     1  UNL1        0.0174
      5 C         142.0747  140.5763  167.0810 C.3     1  UNL1        0.0174
      6 C         142.0799  141.2923  165.7629 C.3     1  UNL1        0.0594
      7 C         141.8569  142.1712  164.5559 C.3     1  UNL1        0.0386
      8 N         140.9996  142.3324  165.7962 N.3     1  UNL1       -0.2750
      9 C         137.7501  144.2096  163.9719 C.3     1  UNL1        0.0738
     10 C         139.0220  144.5907  163.2737 C.ar    1  UNL1        0.1433
     11 N         139.1404  145.5202  162.1023 N.ar    1  UNL1       -0.1337
     12 N         140.5902  145.6131  161.7292 N.ar    1  UNL1       -0.1337
     13 C         141.3679  144.7412  162.6699 C.ar    1  UNL1        0.1425
     14 N         140.3986  144.1093  163.6245 N.ar    1  UNL1       -0.3039
     15 C         142.8538  144.5370  162.6581 C.3     1  UNL1        0.0588
     16 C         143.7094  145.1934  163.7007 C.3     1  UNL1        0.0080
     17 C         143.4844  143.6764  161.6036 C.3     1  UNL1        0.0080
     18 C         140.6530  143.2795  164.6858 C.3     1  UNL1        0.0741
     19 C         140.6105  142.7901  163.2685 C.3     1  UNL1        0.0419
     20 C         139.6155  141.7422  162.8664 C.3     1  UNL1        0.1014
     21 C         139.3363  141.4909  161.4142 C.ar    1  UNL1        0.0251
     22 C         138.2740  140.5860  160.8643 C.ar    1  UNL1        0.0043
     23 C         138.3515  140.6363  159.3672 C.ar    1  UNL1        0.0072
     24 C         139.4619  141.5725  158.9918 C.ar    1  UNL1        0.0352
     25 S         140.0705  142.1007  160.2569 S.2     1  UNL1       -0.0892
     26 N         138.8997  140.9454  163.9166 N.am    1  UNL1       -0.3017
     27 C         139.3785  139.5684  164.2695 C.2     1  UNL1        0.2222
     28 O         140.5733  138.9882  163.5724 O.2     1  UNL1       -0.2751
     29 H         138.1155  141.3262  164.3741 H       1  UNL1        0.1497
     30 C         138.6627  138.7717  165.3196 C.3     1  UNL1        0.0765
     31 C         137.9455  139.3292  166.5133 C.3     1  UNL1        0.0091
     32 C         137.3779  138.1796  167.2918 C.3     1  UNL1        0.0005
     33 C         137.7441  136.9115  166.5793 C.3     1  UNL1        0.0005
     34 C         138.5382  137.2774  165.3604 C.3     1  UNL1        0.0091
@<TRIPOS>BOND
     1     9    10    1
     2    10    11   ar
     3    11    12   ar
     4    12    13   ar
     5    13    15    1
     6    15    16    1
     7    15    17    1
     8    13    14   ar
     9     1    14    1
    10     1     2    1
    11     3     2    1
    12     3     4    1
    13     4     5    1
    14     6     5    1
    15     6     7    1
    16     6     8    1
    17     8    18    1
    18    18    19    1
    19    20    19    1
    20    20    26    1
    21    26    27   am
    22    27    28    2
    23    27    30    1
    24    30    31    1
    25    31    32    1
    26    32    33    1
    27    33    34    1
    28    20    21    1
    29    21    22   ar
    30    22    23   ar
    31    23    24   ar
    32    24    25   ar
    33    14    10   ar
    34     7     1    1
    35    34    30    1
    36    25    21   ar
    37     8     3    1
    38    26    29    1
@<TRIPOS>MOLECULE
*****
 34 38 0 0 0
SMALL
GASTEIGER

@<TRIPOS>ATOM
      1 C         138.5116  140.5121  163.3445 C.3     1  UNL1        0.0904
      2 C         138.2761  140.8870  164.7777 C.3     1  UNL1        0.0386
      3 C         138.2646  139.8263  165.8382 C.3     1  UNL1        0.0594
      4 C         138.3356  138.4945  166.5247 C.3     1  UNL1        0.0174
      5 C         138.6009  137.4492  165.4821 C.3     1  UNL1        0.0174
      6 C         138.6938  138.1350  164.1513 C.3     1  UNL1        0.0594
      7 C         138.7356  139.0764  162.9719 C.3     1  UNL1        0.0386
      8 N         138.4860  139.6041  164.3714 N.3     1  UNL1       -0.2750
      9 C         138.0703  140.0321  160.1469 C.3     1  UNL1        0.0738
     10 C         138.3202  141.3522  160.8141 C.ar    1  UNL1        0.1433
     11 N         138.4112  142.6834  160.1287 N.ar    1  UNL1       -0.1337
     12 N         138.6702  143.7266  161.1749 N.ar    1  UNL1       -0.1337
     13 C         138.7394  143.0403  162.5068 C.ar    1  UNL1        0.1425
     14 N         138.5230  141.5728  162.2839 N.ar    1  UNL1       -0.3039
     15 C         138.9822  143.7047  163.8295 C.3     1  UNL1        0.0588
     16 C         140.3855  143.9414  164.3036 C.3     1  UNL1        0.0080
     17 C         137.8217  144.1326  164.6783 C.3     1  UNL1        0.0080
     18 C         138.4974  140.6648  163.3108 C.3     1  UNL1        0.0741
     19 C         139.6737  140.7906  162.3885 C.3     1  UNL1        0.0419
     20 C         141.0603  140.5412  162.9032 C.3     1  UNL1        0.1014
     21 C         142.0329  139.7460  162.0836 C.ar    1  UNL1        0.0251
     22 C         141.8581  138.3228  161.6432 C.ar    1  UNL1        0.0043
     23 C         143.0683  137.9317  160.8479 C.ar    1  UNL1        0.0072
     24 C         143.9910  139.1132  160.7968 C.ar    1  UNL1        0.0352
     25 S         143.3511  140.2345  161.5605 S.2     1  UNL1       -0.0892
     26 N         141.4745  141.0869  164.2377 N.am    1  UNL1       -0.3017
     27 C         141.9032  140.1524  165.3299 C.2     1  UNL1        0.2222
     28 O         141.9177  138.6722  165.0877 O.2     1  UNL1       -0.2751
     29 H         141.4650  142.0585  164.3967 H       1  UNL1        0.1497
     30 C         142.3174  140.6982  166.6643 C.3     1  UNL1        0.0765
     31 C         142.8535  142.0744  166.9261 C.3     1  UNL1        0.0091
     32 C         143.1356  142.1903  168.3948 C.3     1  UNL1        0.0005
     33 C         142.7739  140.8857  169.0407 C.3     1  UNL1        0.0005
     34 C         142.2682  139.9635  167.9711 C.3     1  UNL1        0.0091
@<TRIPOS>BOND
     1     9    10    1
     2    10    11   ar
     3    11    12   ar
     4    12    13   ar
     5    13    15    1
     6    15    16    1
     7    15    17    1
     8    13    14   ar
     9     1    14    1
    10     1     2    1
    11     3     2    1
    12     3     4    1
    13     4     5    1
    14     6     5    1
    15     6     7    1
    16     6     8    1
    17     8    18    1
    18    18    19    1
    19    20    19    1
    20    20    26    1
    21    26    27   am
    22    27    28    2
    23    27    30    1
    24    30    31    1
    25    31    32    1
    26    32    33    1
    27    33    34    1
    28    20    21    1
    29    21    22   ar
    30    22    23   ar
    31    23    24   ar
    32    24    25   ar
    33    14    10   ar
    34     7     1    1
    35    34    30    1
    36    25    21   ar
    37     8     3    1
    38    26    29    1
@<TRIPOS>MOLECULE
*****
 34 38 0 0 0
SMALL
GASTEIGER

@<TRIPOS>ATOM
      1 C         138.8933  141.2148  163.5661 C.3     1  UNL1        0.0904
      2 C         139.6532  140.0315  163.0443 C.3     1  UNL1        0.0386
      3 C         139.6325  138.7350  163.7985 C.3     1  UNL1        0.0594
      4 C         139.3381  137.6929  164.8365 C.3     1  UNL1        0.0174
      5 C         138.4488  138.3109  165.8744 C.3     1  UNL1        0.0174
      6 C         138.1936  139.7349  165.4779 C.3     1  UNL1        0.0594
      7 C         138.1129  141.1017  164.8421 C.3     1  UNL1        0.0386
      8 N         138.9252  139.9970  164.1949 N.3     1  UNL1       -0.2750
      9 C         137.8113  144.0907  164.6654 C.3     1  UNL1        0.0738
     10 C         138.4166  143.8332  163.3172 C.ar    1  UNL1        0.1433
     11 N         138.6308  144.8524  162.2377 N.ar    1  UNL1       -0.1337
     12 N         139.2606  144.1604  161.0654 N.ar    1  UNL1       -0.1337
     13 C         139.4356  142.7136  161.4202 C.ar    1  UNL1        0.1425
     14 N         138.9140  142.5114  162.8120 N.ar    1  UNL1       -0.3039
     15 C         140.0281  141.6549  160.5382 C.3     1  UNL1        0.0588
     16 C         141.5165  141.4820  160.4702 C.3     1  UNL1        0.0080
     17 C         139.1322  140.7689  159.7241 C.3     1  UNL1        0.0080
     18 C         138.9458  141.2934  163.4408 C.3     1  UNL1        0.0741
     19 C         139.7454  142.4511  163.9609 C.3     1  UNL1        0.0419
     20 C         141.1483  142.2358  164.4461 C.3     1  UNL1        0.1014
     21 C         142.2920  142.9262  163.7640 C.ar    1  UNL1        0.0251
     22 C         142.2935  144.3376  163.2559 C.ar    1  UNL1        0.0043
     23 C         143.6375  144.6100  162.6481 C.ar    1  UNL1        0.0072
     24 C         144.4667  143.3670  162.7806 C.ar    1  UNL1        0.0352
     25 S         143.6352  142.3264  163.4703 S.2     1  UNL1       -0.0892
     26 N         141.4077  141.3301  165.6134 N.am    1  UNL1       -0.3017
     27 C         141.0047  141.7532  166.9949 C.2     1  UNL1        0.2222
     28 O         140.3423  143.0819  167.2092 O.2     1  UNL1       -0.2751
     29 H         141.8424  140.4581  165.4728 H       1  UNL1        0.1497
     30 C         141.2640  140.8475  168.1622 C.3     1  UNL1        0.0765
     31 C         140.3034  140.5447  169.2737 C.3     1  UNL1        0.0091
     32 C         140.9753  139.5956  170.2213 C.3     1  UNL1        0.0005
     33 C         142.3511  139.3119  169.6955 C.3     1  UNL1        0.0005
     34 C         142.5296  140.0856  168.4228 C.3     1  UNL1        0.0091
@<TRIPOS>BOND
     1     9    10    1
     2    10    11   ar
     3    11    12   ar
     4    12    13   ar
     5    13    15    1
     6    15    16    1
     7    15    17    1
     8    13    14   ar
     9     1    14    1
    10     1     2    1
    11     3     2    1
    12     3     4    1
    13     4     5    1
    14     6     5    1
    15     6     7    1
    16     6     8    1
    17     8    18    1
    18    18    19    1
    19    20    19    1
    20    20    26    1
    21    26    27   am
    22    27    28    2
    23    27    30    1
    24    30    31    1
    25    31    32    1
    26    32    33    1
    27    33    34    1
    28    20    21    1
    29    21    22   ar
    30    22    23   ar
    31    23    24   ar
    32    24    25   ar
    33    14    10   ar
    34     7     1    1
    35    34    30    1
    36    25    21   ar
    37     8     3    1
    38    26    29    1
@<TRIPOS>MOLECULE
*****
 34 38 0 0 0
SMALL
GASTEIGER

@<TRIPOS>ATOM
      1 C         142.2783  140.5853  162.8542 C.3     1  UNL1        0.0904
      2 C         143.1431  139.7955  163.7913 C.3     1  UNL1        0.0386
      3 C         142.6264  138.5243  164.3972 C.3     1  UNL1        0.0594
      4 C         141.7343  137.3704  164.7473 C.3     1  UNL1        0.0174
      5 C         140.4373  137.5486  164.0151 C.3     1  UNL1        0.0174
      6 C         140.5279  138.8126  163.2125 C.3     1  UNL1        0.0594
      7 C         140.8967  140.1040  162.5231 C.3     1  UNL1        0.0386
      8 N         141.8809  139.4157  163.4487 N.3     1  UNL1       -0.2750
      9 C         141.1666  142.0036  160.1335 C.3     1  UNL1        0.0738
     10 C         142.2840  142.5085  160.9977 C.ar    1  UNL1        0.1433
     11 N         143.0865  143.7538  160.7630 N.ar    1  UNL1       -0.1337
     12 N         144.0934  143.8715  161.8685 N.ar    1  UNL1       -0.1337
     13 C         143.9133  142.6990  162.7864 C.ar    1  UNL1        0.1425
     14 N         142.7950  141.8566  162.2482 N.ar    1  UNL1       -0.3039
     15 C         144.7113  142.4182  164.0251 C.3     1  UNL1        0.0588
     16 C         144.3632  143.1037  165.3130 C.3     1  UNL1        0.0080
     17 C         145.8576  141.4518  163.9758 C.3     1  UNL1        0.0080
     18 C         142.3976  140.6868  162.8428 C.3     1  UNL1        0.0741
     19 C         141.6124  141.9573  162.9818 C.3     1  UNL1        0.0419
     20 C         140.9001  142.2619  164.2662 C.3     1  UNL1        0.1014
     21 C         139.6646  143.1125  164.2552 C.ar    1  UNL1        0.0251
     22 C         139.1915  143.9948  165.3722 C.ar    1  UNL1        0.0043
     23 C         137.9198  144.6576  164.9325 C.ar    1  UNL1        0.0072
     24 C         137.6069  144.1850  163.5437 C.ar    1  UNL1        0.0352
     25 S         138.6853  143.2301  163.1251 S.2     1  UNL1       -0.0892
     26 N         141.4232  141.7160  165.5618 N.am    1  UNL1       -0.3017
     27 C         140.5673  140.8065  166.3925 C.2     1  UNL1        0.2222
     28 O         139.1883  140.4427  165.9277 O.2     1  UNL1       -0.2751
     29 H         142.3283  141.9548  165.8668 H       1  UNL1        0.1497
     30 C         141.0905  140.2606  167.6880 C.3     1  UNL1        0.0765
     31 C         140.3460  140.2127  168.9893 C.3     1  UNL1        0.0091
     32 C         141.2454  139.5893  170.0152 C.3     1  UNL1        0.0005
     33 C         142.5457  139.2519  169.3480 C.3     1  UNL1        0.0005
     34 C         142.4500  139.6669  167.9096 C.3     1  UNL1        0.0091
@<TRIPOS>BOND
     1     9    10    1
     2    10    11   ar
     3    11    12   ar
     4    12    13   ar
     5    13    15    1
     6    15    16    1
     7    15    17    1
     8    13    14   ar
     9     1    14    1
    10     1     2    1
    11     3     2    1
    12     3     4    1
    13     4     5    1
    14     6     5    1
    15     6     7    1
    16     6     8    1
    17     8    18    1
    18    18    19    1
    19    20    19    1
    20    20    26    1
    21    26    27   am
    22    27    28    2
    23    27    30    1
    24    30    31    1
    25    31    32    1
    26    32    33    1
    27    33    34    1
    28    20    21    1
    29    21    22   ar
    30    22    23   ar
    31    23    24   ar
    32    24    25   ar
    33    14    10   ar
    34     7     1    1
    35    34    30    1
    36    25    21   ar
    37     8     3    1
    38    26    29    1
@<TRIPOS>MOLECULE
*****
 34 38 0 0 0
SMALL
GASTEIGER

@<TRIPOS>ATOM
      1 C         139.0528  141.3667  163.2913 C.3     1  UNL1        0.0904
      2 C         138.0626  141.7898  164.3356 C.3     1  UNL1        0.0386
      3 C         138.0694  143.1995  164.8481 C.3     1  UNL1        0.0594
      4 C         138.4304  144.6407  165.0545 C.3     1  UNL1        0.0174
      5 C         139.5777  144.9660  164.1446 C.3     1  UNL1        0.0174
      6 C         139.9258  143.7259  163.3759 C.3     1  UNL1        0.0594
      7 C         140.0498  142.3533  162.7596 C.3     1  UNL1        0.0386
      8 N         138.9936  142.6341  163.8107 N.3     1  UNL1       -0.2750
      9 C         138.4338  138.6889  165.0508 C.3     1  UNL1        0.0738
     10 C         138.7615  138.7261  163.5874 C.ar    1  UNL1        0.1433
     11 N         138.8622  137.5391  162.6759 N.ar    1  UNL1       -0.1337
     12 N         139.2089  138.0363  161.3039 N.ar    1  UNL1       -0.1337
     13 C         139.3226  139.5306  161.3674 C.ar    1  UNL1        0.1425
     14 N         139.0460  139.9570  162.7787 N.ar    1  UNL1       -0.3039
     15 C         139.6544  140.4391  160.2209 C.3     1  UNL1        0.0588
     16 C         138.5762  141.2606  159.5785 C.3     1  UNL1        0.0080
     17 C         141.0645  140.5262  159.7167 C.3     1  UNL1        0.0080
     18 C         138.9868  141.2244  163.2982 C.3     1  UNL1        0.0741
     19 C         140.2712  140.4558  163.2001 C.3     1  UNL1        0.0419
     20 C         141.2437  140.4716  164.3419 C.3     1  UNL1        0.1014
     21 C         142.7160  140.3682  164.0746 C.ar    1  UNL1        0.0251
     22 C         143.7188  139.6497  164.9279 C.ar    1  UNL1        0.0043
     23 C         145.0666  139.8027  164.2876 C.ar    1  UNL1        0.0072
     24 C         144.8968  140.6158  163.0386 C.ar    1  UNL1        0.0352
     25 S         143.4441  140.9653  162.9069 S.2     1  UNL1       -0.0892
     26 N         140.7439  140.5908  165.7513 N.am    1  UNL1       -0.3017
     27 C         141.0599  141.8153  166.5580 C.2     1  UNL1        0.2222
     28 O         141.8756  142.9206  165.9555 O.2     1  UNL1       -0.2751
     29 H         140.2085  139.8654  166.1467 H       1  UNL1        0.1497
     30 C         140.5601  141.9345  167.9672 C.3     1  UNL1        0.0765
     31 C         140.5768  143.1776  168.8065 C.3     1  UNL1        0.0091
     32 C         139.9830  142.8429  170.1427 C.3     1  UNL1        0.0005
     33 C         139.5992  141.3929  170.1292 C.3     1  UNL1        0.0005
     34 C         139.9559  140.8315  168.7847 C.3     1  UNL1        0.0091
@<TRIPOS>BOND
     1     9    10    1
     2    10    11   ar
     3    11    12   ar
     4    12    13   ar
     5    13    15    1
     6    15    16    1
     7    15    17    1
     8    13    14   ar
     9     1    14    1
    10     1     2    1
    11     3     2    1
    12     3     4    1
    13     4     5    1
    14     6     5    1
    15     6     7    1
    16     6     8    1
    17     8    18    1
    18    18    19    1
    19    20    19    1
    20    20    26    1
    21    26    27   am
    22    27    28    2
    23    27    30    1
    24    30    31    1
    25    31    32    1
    26    32    33    1
    27    33    34    1
    28    20    21    1
    29    21    22   ar
    30    22    23   ar
    31    23    24   ar
    32    24    25   ar
    33    14    10   ar
    34     7     1    1
    35    34    30    1
    36    25    21   ar
    37     8     3    1
    38    26    29    1
@<TRIPOS>MOLECULE
*****
 34 38 0 0 0
SMALL
GASTEIGER

@<TRIPOS>ATOM
      1 C         141.5167  143.1445  163.3221 C.3     1  UNL1        0.0904
      2 C         141.3337  144.1821  164.3898 C.3     1  UNL1        0.0386
      3 C         139.9544  144.5454  164.8540 C.3     1  UNL1        0.0594
      4 C         138.4618  144.5855  164.9973 C.3     1  UNL1        0.0174
      5 C         137.8768  143.5971  164.0325 C.3     1  UNL1        0.0174
      6 C         139.0078  142.9462  163.2929 C.3     1  UNL1        0.0594
      7 C         140.3203  142.4702  162.7187 C.3     1  UNL1        0.0386
      8 N         140.2918  143.5322  163.8005 N.3     1  UNL1       -0.2750
      9 C         144.2267  143.1915  165.1396 C.3     1  UNL1        0.0738
     10 C         144.1417  142.8027  163.6932 C.ar    1  UNL1        0.1433
     11 N         145.2874  142.3674  162.8284 N.ar    1  UNL1       -0.1337
     12 N         144.7498  142.0767  161.4586 N.ar    1  UNL1       -0.1337
     13 C         143.2719  142.3324  161.4767 C.ar    1  UNL1        0.1425
     14 N         142.8961  142.7812  162.8578 N.ar    1  UNL1       -0.3039
     15 C         142.3344  142.1683  160.3174 C.3     1  UNL1        0.0588
     16 C         141.8294  143.3757  159.5844 C.3     1  UNL1        0.0080
     17 C         141.9017  140.7967  159.8910 C.3     1  UNL1        0.0080
     18 C         141.6712  143.1689  163.3363 C.3     1  UNL1        0.0741
     19 C         142.1060  141.7334  163.3284 C.3     1  UNL1        0.0419
     20 C         141.6734  140.8126  164.4306 C.3     1  UNL1        0.1014
     21 C         141.3305  139.3849  164.1241 C.ar    1  UNL1        0.0251
     22 C         141.7554  138.1858  164.9189 C.ar    1  UNL1        0.0043
     23 C         141.1900  136.9655  164.2548 C.ar    1  UNL1        0.0072
     24 C         140.4157  137.4103  163.0496 C.ar    1  UNL1        0.0352
     25 S         140.5025  138.9056  162.9688 S.2     1  UNL1       -0.0892
     26 N         141.5836  141.3196  165.8396 N.am    1  UNL1       -0.3017
     27 C         140.2729  141.2822  166.5680 C.2     1  UNL1        0.2222
     28 O         139.0519  140.7379  165.8875 O.2     1  UNL1       -0.2751
     29 H         142.3849  141.6768  166.2862 H       1  UNL1        0.1497
     30 C         140.1831  141.7891  167.9769 C.3     1  UNL1        0.0765
     31 C         139.7658  140.9907  169.1762 C.3     1  UNL1        0.0091
     32 C         139.8197  141.8916  170.3744 C.3     1  UNL1        0.0005
     33 C         140.2703  143.2467  169.9156 C.3     1  UNL1        0.0005
     34 C         140.4949  143.1833  168.4338 C.3     1  UNL1        0.0091
@<TRIPOS>BOND
     1     9    10    1
     2    10    11   ar
     3    11    12   ar
     4    12    13   ar
     5    13    15    1
     6    15    16    1
     7    15    17    1
     8    13    14   ar
     9     1    14    1
    10     1     2    1
    11     3     2    1
    12     3     4    1
    13     4     5    1
    14     6     5    1
    15     6     7    1
    16     6     8    1
    17     8    18    1
    18    18    19    1
    19    20    19    1
    20    20    26    1
    21    26    27   am
    22    27    28    2
    23    27    30    1
    24    30    31    1
    25    31    32    1
    26    32    33    1
    27    33    34    1
    28    20    21    1
    29    21    22   ar
    30    22    23   ar
    31    23    24   ar
    32    24    25   ar
    33    14    10   ar
    34     7     1    1
    35    34    30    1
    36    25    21   ar
    37     8     3    1
    38    26    29    1
@<TRIPOS>MOLECULE
*****
 34 38 0 0 0
SMALL
GASTEIGER

@<TRIPOS>ATOM
      1 C         142.9251  140.9673  163.4997 C.3     1  UNL1        0.0904
      2 C         143.8344  140.3605  164.5267 C.3     1  UNL1        0.0386
      3 C         143.4974  139.0316  165.1354 C.3     1  UNL1        0.0594
      4 C         142.7922  137.7472  165.4564 C.3     1  UNL1        0.0174
      5 C         141.5475  137.6807  164.6219 C.3     1  UNL1        0.0174
      6 C         141.4834  138.9240  163.7851 C.3     1  UNL1        0.0594
      7 C         141.6786  140.2452  163.0813 C.3     1  UNL1        0.0386
      8 N         142.6885  139.7589  164.1025 N.3     1  UNL1       -0.2750
      9 C         144.3724  143.4636  165.0240 C.3     1  UNL1        0.0738
     10 C         143.9274  143.4436  163.5916 C.ar    1  UNL1        0.1433
     11 N         144.0695  144.5675  162.6084 N.ar    1  UNL1       -0.1337
     12 N         143.4920  144.1147  161.3002 N.ar    1  UNL1       -0.1337
     13 C         142.9931  142.7110  161.4748 C.ar    1  UNL1        0.1425
     14 N         143.2621  142.2962  162.8910 N.ar    1  UNL1       -0.3039
     15 C         142.3397  141.8697  160.4186 C.3     1  UNL1        0.0588
     16 C         140.9220  142.1435  160.0124 C.3     1  UNL1        0.0080
     17 C         143.1041  140.7546  159.7687 C.3     1  UNL1        0.0080
     18 C         143.0256  141.0878  163.4938 C.3     1  UNL1        0.0741
     19 C         141.9877  142.1689  163.4311 C.3     1  UNL1        0.0419
     20 C         141.0851  142.4109  164.6043 C.3     1  UNL1        0.1014
     21 C         139.8054  143.1720  164.4217 C.ar    1  UNL1        0.0251
     22 C         139.1615  144.0704  165.4357 C.ar    1  UNL1        0.0043
     23 C         137.9032  144.6219  164.8337 C.ar    1  UNL1        0.0072
     24 C         137.7694  144.0643  163.4476 C.ar    1  UNL1        0.0352
     25 S         138.9451  143.1682  163.1929 S.2     1  UNL1       -0.0892
     26 N         141.4620  141.8919  165.9603 N.am    1  UNL1       -0.3017
     27 C         140.5724  140.9079  166.6606 C.2     1  UNL1        0.2222
     28 O         139.3059  140.4430  166.0050 O.2     1  UNL1       -0.2751
     29 H         142.2932  142.1970  166.3906 H       1  UNL1        0.1497
     30 C         140.9493  140.3890  168.0166 C.3     1  UNL1        0.0765
     31 C         142.2918  139.8497  168.4123 C.3     1  UNL1        0.0091
     32 C         142.2221  139.4455  169.8552 C.3     1  UNL1        0.0005
     33 C         140.8364  139.7351  170.3512 C.3     1  UNL1        0.0005
     34 C         140.0498  140.3182  169.2148 C.3     1  UNL1        0.0091
@<TRIPOS>BOND
     1     9    10    1
     2    10    11   ar
     3    11    12   ar
     4    12    13   ar
     5    13    15    1
     6    15    16    1
     7    15    17    1
     8    13    14   ar
     9     1    14    1
    10     1     2    1
    11     3     2    1
    12     3     4    1
    13     4     5    1
    14     6     5    1
    15     6     7    1
    16     6     8    1
    17     8    18    1
    18    18    19    1
    19    20    19    1
    20    20    26    1
    21    26    27   am
    22    27    28    2
    23    27    30    1
    24    30    31    1
    25    31    32    1
    26    32    33    1
    27    33    34    1
    28    20    21    1
    29    21    22   ar
    30    22    23   ar
    31    23    24   ar
    32    24    25   ar
    33    14    10   ar
    34     7     1    1
    35    34    30    1
    36    25    21   ar
    37     8     3    1
    38    26    29    1
