@<TRIPOS>MOLECULE
*****
 29 31 0 0 0
SMALL
GASTEIGER

@<TRIPOS>ATOM
      1 C         138.1522  141.6154  158.3496 C.2     1  UNL1        0.2488
      2 O         138.5293  142.4665  159.5258 O.2     1  UNL1       -0.2700
      3 N         138.1771  140.1202  158.4671 N.am    1  UNL1       -0.3023
      4 H         137.9296  139.5616  157.6951 H       1  UNL1        0.1497
      5 C         136.5663  141.7397  156.2955 C.ar    1  UNL1        0.1443
      6 C         136.1643  142.3838  155.0019 C.ar    1  UNL1        0.0520
      7 C         136.9461  143.5476  154.4687 C.ar    1  UNL1        0.0553
      8 N         136.5440  144.1917  153.1750 N.pl3   1  UNL1       -0.3563
      9 C         138.1299  144.0674  155.2291 C.ar    1  UNL1        0.0709
     10 CL        138.9118  145.2312  154.6960 Cl      1  UNL1       -0.0810
     11 C         138.5319  143.4233  156.5228 C.ar    1  UNL1        0.0202
     12 C         137.7501  142.2595  157.0559 C.ar    1  UNL1        0.0882
     13 H         135.7670  143.8506  152.6759 H       1  UNL1        0.1424
     14 H         137.0572  144.9556  152.8250 H       1  UNL1        0.1424
     15 C         134.4281  140.2642  156.2693 C.3     1  UNL1        0.2525
     16 O         135.7845  140.5759  156.8286 O.3     1  UNL1       -0.4712
     17 C         138.5791  139.4761  159.7607 C.3     1  UNL1        0.0746
     18 C         139.9691  138.9384  159.9307 C.3     1  UNL1        0.0369
     19 C         140.3711  138.2943  161.2244 C.3     1  UNL1        0.0741
     20 N         139.3832  138.1879  162.3480 N.3     1  UNL1       -0.2689
     21 C         137.9933  138.7257  162.1781 C.3     1  UNL1        0.0741
     22 C         137.5912  139.3697  160.8845 C.3     1  UNL1        0.0369
     23 C         139.7853  137.5439  163.6416 C.3     1  UNL1        0.0991
     24 C         139.6131  138.2855  164.9340 C.ar    1  UNL1       -0.0061
     25 C         138.3538  138.1198  165.7318 C.ar    1  UNL1       -0.0029
     26 C         138.1816  138.8614  167.0243 C.ar    1  UNL1       -0.0003
     27 C         139.2688  139.7687  167.5189 C.ar    1  UNL1       -0.0000
     28 C         140.5282  139.9345  166.7211 C.ar    1  UNL1       -0.0003
     29 C         140.7004  139.1929  165.4286 C.ar    1  UNL1       -0.0029
@<TRIPOS>BOND
     1    15    16    1
     2    16     5    1
     3     5     6   ar
     4     6     7   ar
     5     7     8    1
     6     7     9   ar
     7     9    10    1
     8     9    11   ar
     9    11    12   ar
    10    12     1    1
    11     1     2    2
    12     1     3   am
    13     3    17    1
    14    17    18    1
    15    18    19    1
    16    19    20    1
    17    20    23    1
    18    23    24    1
    19    24    25   ar
    20    25    26   ar
    21    26    27   ar
    22    27    28   ar
    23    28    29   ar
    24    20    21    1
    25    21    22    1
    26    12     5   ar
    27    22    17    1
    28    29    24   ar
    29     8    13    1
    30     8    14    1
    31     3     4    1
@<TRIPOS>MOLECULE
*****
 29 31 0 0 0
SMALL
GASTEIGER

@<TRIPOS>ATOM
      1 C         140.7128  142.6460  165.4770 C.2     1  UNL1        0.2488
      2 O         142.0970  143.1912  165.2855 O.2     1  UNL1       -0.2700
      3 N         139.6993  142.7700  164.3782 N.am    1  UNL1       -0.3023
      4 H         138.7908  142.4122  164.5038 H       1  UNL1        0.1497
      5 C         139.8135  140.5730  166.7591 C.ar    1  UNL1        0.1443
      6 C         139.4428  139.9037  168.0494 C.ar    1  UNL1        0.0520
      7 C         139.6008  140.6382  169.3476 C.ar    1  UNL1        0.0553
      8 N         139.2301  139.9689  170.6379 N.pl3   1  UNL1       -0.3563
      9 C         140.1294  142.0420  169.3557 C.ar    1  UNL1        0.0709
     10 CL        140.2873  142.7765  170.6540 Cl      1  UNL1       -0.0810
     11 C         140.5000  142.7112  168.0655 C.ar    1  UNL1        0.0202
     12 C         140.3421  141.9767  166.7672 C.ar    1  UNL1        0.0882
     13 H         138.8831  139.0476  170.6326 H       1  UNL1        0.1424
     14 H         139.3337  140.4510  171.4900 H       1  UNL1        0.1424
     15 C         138.2921  139.4186  164.9977 C.3     1  UNL1        0.2525
     16 O         139.6556  139.8385  165.4608 O.3     1  UNL1       -0.4712
     17 C         140.0699  143.4393  163.0880 C.3     1  UNL1        0.0746
     18 C         139.6114  144.8404  162.8111 C.3     1  UNL1        0.0369
     19 C         139.9821  145.5096  161.5208 C.3     1  UNL1        0.0741
     20 N         140.8112  144.7778  160.5075 N.3     1  UNL1       -0.2689
     21 C         141.2697  143.3767  160.7844 C.3     1  UNL1        0.0741
     22 C         140.8991  142.7074  162.0746 C.3     1  UNL1        0.0369
     23 C         141.1819  145.4470  159.2173 C.3     1  UNL1        0.0991
     24 C         140.3249  145.2576  158.0009 C.ar    1  UNL1       -0.0061
     25 C         139.7237  143.9148  157.7087 C.ar    1  UNL1       -0.0029
     26 C         138.8667  143.7253  156.4923 C.ar    1  UNL1       -0.0003
     27 C         138.6109  144.8787  155.5680 C.ar    1  UNL1       -0.0000
     28 C         139.2122  146.2215  155.8601 C.ar    1  UNL1       -0.0003
     29 C         140.0692  146.4110  157.0765 C.ar    1  UNL1       -0.0029
@<TRIPOS>BOND
     1    15    16    1
     2    16     5    1
     3     5     6   ar
     4     6     7   ar
     5     7     8    1
     6     7     9   ar
     7     9    10    1
     8     9    11   ar
     9    11    12   ar
    10    12     1    1
    11     1     2    2
    12     1     3   am
    13     3    17    1
    14    17    18    1
    15    18    19    1
    16    19    20    1
    17    20    23    1
    18    23    24    1
    19    24    25   ar
    20    25    26   ar
    21    26    27   ar
    22    27    28   ar
    23    28    29   ar
    24    20    21    1
    25    21    22    1
    26    12     5   ar
    27    22    17    1
    28    29    24   ar
    29     8    13    1
    30     8    14    1
    31     3     4    1
@<TRIPOS>MOLECULE
*****
 29 31 0 0 0
SMALL
GASTEIGER

@<TRIPOS>ATOM
      1 C         140.3540  138.3072  163.2409 C.2     1  UNL1        0.2488
      2 O         140.7269  136.8857  162.9402 O.2     1  UNL1       -0.2700
      3 N         140.3512  139.3300  162.1437 N.am    1  UNL1       -0.3023
      4 H         140.1064  140.2629  162.3410 H       1  UNL1        0.1497
      5 C         140.8561  139.6569  165.4033 C.ar    1  UNL1        0.1443
      6 C         140.4859  140.0555  166.8012 C.ar    1  UNL1        0.0520
      7 C         139.2434  139.5031  167.4345 C.ar    1  UNL1        0.0553
      8 N         138.8732  139.9018  168.8324 N.pl3   1  UNL1       -0.3563
      9 C         138.3711  138.5520  166.6699 C.ar    1  UNL1        0.0709
     10 CL        137.1286  137.9996  167.3032 Cl      1  UNL1       -0.0810
     11 C         138.7413  138.1534  165.2721 C.ar    1  UNL1        0.0202
     12 C         139.9838  138.7058  164.6388 C.ar    1  UNL1        0.0882
     13 H         139.4458  140.5260  169.3342 H       1  UNL1        0.1424
     14 H         138.0577  139.5392  169.2481 H       1  UNL1        0.1424
     15 C         143.4203  139.5392  165.0023 C.3     1  UNL1        0.2525
     16 O         142.0986  140.2093  164.7700 O.3     1  UNL1       -0.4712
     17 C         140.7213  138.9314  160.7458 C.3     1  UNL1        0.0746
     18 C         139.6492  138.7080  159.7208 C.3     1  UNL1        0.0369
     19 C         140.0194  138.3094  158.3229 C.3     1  UNL1        0.0741
     20 N         141.4617  138.1341  157.9500 N.3     1  UNL1       -0.2689
     21 C         142.5338  138.3574  158.9751 C.3     1  UNL1        0.0741
     22 C         142.1637  138.7560  160.3729 C.3     1  UNL1        0.0369
     23 C         141.8318  137.7355  156.5522 C.3     1  UNL1        0.0991
     24 C         142.0704  136.2918  156.2222 C.ar    1  UNL1       -0.0061
     25 C         143.2642  135.5808  156.7871 C.ar    1  UNL1       -0.0029
     26 C         143.5028  134.1371  156.4572 C.ar    1  UNL1       -0.0003
     27 C         142.5476  133.4045  155.5623 C.ar    1  UNL1       -0.0000
     28 C         141.3537  134.1155  154.9974 C.ar    1  UNL1       -0.0003
     29 C         141.1151  135.5592  155.3273 C.ar    1  UNL1       -0.0029
@<TRIPOS>BOND
     1    15    16    1
     2    16     5    1
     3     5     6   ar
     4     6     7   ar
     5     7     8    1
     6     7     9   ar
     7     9    10    1
     8     9    11   ar
     9    11    12   ar
    10    12     1    1
    11     1     2    2
    12     1     3   am
    13     3    17    1
    14    17    18    1
    15    18    19    1
    16    19    20    1
    17    20    23    1
    18    23    24    1
    19    24    25   ar
    20    25    26   ar
    21    26    27   ar
    22    27    28   ar
    23    28    29   ar
    24    20    21    1
    25    21    22    1
    26    12     5   ar
    27    22    17    1
    28    29    24   ar
    29     8    13    1
    30     8    14    1
    31     3     4    1
@<TRIPOS>MOLECULE
*****
 29 31 0 0 0
SMALL
GASTEIGER

@<TRIPOS>ATOM
      1 C         140.2733  139.9850  165.1914 C.2     1  UNL1        0.2488
      2 O         139.3984  141.0550  164.6087 O.2     1  UNL1       -0.2700
      3 N         140.8722  138.9378  164.3000 N.am    1  UNL1       -0.3023
      4 H         141.4465  138.2355  164.6825 H       1  UNL1        0.1497
      5 C         141.9435  139.7212  167.1640 C.ar    1  UNL1        0.1443
      6 C         142.2195  139.6984  168.6382 C.ar    1  UNL1        0.0520
      7 C         141.1014  139.9166  169.6140 C.ar    1  UNL1        0.0553
      8 N         141.3775  139.8938  171.0883 N.pl3   1  UNL1       -0.3563
      9 C         139.7074  140.1576  169.1157 C.ar    1  UNL1        0.0709
     10 CL        138.5893  140.3759  170.0916 Cl      1  UNL1       -0.0810
     11 C         139.4313  140.1804  167.6416 C.ar    1  UNL1        0.0202
     12 C         140.5494  139.9622  166.6657 C.ar    1  UNL1        0.0882
     13 H         142.2925  139.7356  171.4154 H       1  UNL1        0.1424
     14 H         140.6437  140.0370  171.7288 H       1  UNL1        0.1424
     15 C         143.8506  138.2278  166.2245 C.3     1  UNL1        0.2525
     16 O         143.0616  139.5029  166.1882 O.3     1  UNL1       -0.4712
     17 C         140.5962  138.9606  162.8258 C.3     1  UNL1        0.0746
     18 C         141.4048  139.8463  161.9249 C.3     1  UNL1        0.0369
     19 C         141.1287  139.8690  160.4507 C.3     1  UNL1        0.0741
     20 N         140.0440  139.0061  159.8774 N.3     1  UNL1       -0.2689
     21 C         139.2353  138.1204  160.7783 C.3     1  UNL1        0.0741
     22 C         139.5114  138.0976  162.2525 C.3     1  UNL1        0.0369
     23 C         139.7680  139.0288  158.4032 C.3     1  UNL1        0.0991
     24 C         140.4299  138.0302  157.5007 C.ar    1  UNL1       -0.0061
     25 C         139.6584  137.4114  156.3730 C.ar    1  UNL1       -0.0029
     26 C         140.3204  136.4128  155.4705 C.ar    1  UNL1       -0.0003
     27 C         141.7539  136.0329  155.6957 C.ar    1  UNL1       -0.0000
     28 C         142.5255  136.6517  156.8235 C.ar    1  UNL1       -0.0003
     29 C         141.8635  137.6503  157.7260 C.ar    1  UNL1       -0.0029
@<TRIPOS>BOND
     1    15    16    1
     2    16     5    1
     3     5     6   ar
     4     6     7   ar
     5     7     8    1
     6     7     9   ar
     7     9    10    1
     8     9    11   ar
     9    11    12   ar
    10    12     1    1
    11     1     2    2
    12     1     3   am
    13     3    17    1
    14    17    18    1
    15    18    19    1
    16    19    20    1
    17    20    23    1
    18    23    24    1
    19    24    25   ar
    20    25    26   ar
    21    26    27   ar
    22    27    28   ar
    23    28    29   ar
    24    20    21    1
    25    21    22    1
    26    12     5   ar
    27    22    17    1
    28    29    24   ar
    29     8    13    1
    30     8    14    1
    31     3     4    1
@<TRIPOS>MOLECULE
*****
 29 31 0 0 0
SMALL
GASTEIGER

@<TRIPOS>ATOM
      1 C         141.9067  139.9627  165.6889 C.2     1  UNL1        0.2488
      2 O         143.0028  140.8733  165.2205 O.2     1  UNL1       -0.2700
      3 N         141.2359  139.0358  164.7189 N.am    1  UNL1       -0.3023
      4 H         140.5165  138.4382  165.0263 H       1  UNL1        0.1497
      5 C         140.0265  140.0815  167.4780 C.ar    1  UNL1        0.1443
      6 C         139.6012  140.0979  168.9163 C.ar    1  UNL1        0.0520
      7 C         140.6306  140.0117  170.0039 C.ar    1  UNL1        0.0553
      8 N         140.2052  140.0281  171.4422 N.pl3   1  UNL1       -0.3563
      9 C         142.0854  139.9093  169.6531 C.ar    1  UNL1        0.0709
     10 CL        143.1149  139.8231  170.7407 Cl      1  UNL1       -0.0810
     11 C         142.5107  139.8929  168.2148 C.ar    1  UNL1        0.0202
     12 C         141.4813  139.9791  167.1272 C.ar    1  UNL1        0.0882
     13 H         139.2504  140.0953  171.6724 H       1  UNL1        0.1424
     14 H         140.8809  139.9715  172.1561 H       1  UNL1        0.1424
     15 C         138.0234  139.0446  166.1887 C.3     1  UNL1        0.2525
     16 O         138.9971  140.1677  166.3904 O.3     1  UNL1       -0.4712
     17 C         141.6613  139.0194  163.2806 C.3     1  UNL1        0.0746
     18 C         142.6408  137.9902  162.7998 C.3     1  UNL1        0.0369
     19 C         143.0661  137.9738  161.3614 C.3     1  UNL1        0.0741
     20 N         142.5119  138.9867  160.4039 N.3     1  UNL1       -0.2689
     21 C         141.5324  140.0160  160.8847 C.3     1  UNL1        0.0741
     22 C         141.1071  140.0324  162.3230 C.3     1  UNL1        0.0369
     23 C         142.9373  138.9704  158.9656 C.3     1  UNL1        0.0991
     24 C         142.1665  138.1616  157.9647 C.ar    1  UNL1       -0.0061
     25 C         140.7197  138.4646  157.7101 C.ar    1  UNL1       -0.0029
     26 C         139.9488  137.6559  156.7092 C.ar    1  UNL1       -0.0003
     27 C         140.6248  136.5442  155.9628 C.ar    1  UNL1       -0.0000
     28 C         142.0717  136.2411  156.2174 C.ar    1  UNL1       -0.0003
     29 C         142.8426  137.0499  157.2183 C.ar    1  UNL1       -0.0029
@<TRIPOS>BOND
     1    15    16    1
     2    16     5    1
     3     5     6   ar
     4     6     7   ar
     5     7     8    1
     6     7     9   ar
     7     9    10    1
     8     9    11   ar
     9    11    12   ar
    10    12     1    1
    11     1     2    2
    12     1     3   am
    13     3    17    1
    14    17    18    1
    15    18    19    1
    16    19    20    1
    17    20    23    1
    18    23    24    1
    19    24    25   ar
    20    25    26   ar
    21    26    27   ar
    22    27    28   ar
    23    28    29   ar
    24    20    21    1
    25    21    22    1
    26    12     5   ar
    27    22    17    1
    28    29    24   ar
    29     8    13    1
    30     8    14    1
    31     3     4    1
@<TRIPOS>MOLECULE
*****
 29 31 0 0 0
SMALL
GASTEIGER

@<TRIPOS>ATOM
      1 C         141.3824  142.4585  165.9897 C.2     1  UNL1        0.2488
      2 O         139.9064  142.6294  165.7851 O.2     1  UNL1       -0.2700
      3 N         142.3457  142.9520  164.9512 N.am    1  UNL1       -0.3023
      4 H         143.3145  142.8399  165.0855 H       1  UNL1        0.1497
      5 C         141.4110  140.4243  167.6057 C.ar    1  UNL1        0.1443
      6 C         141.9239  139.7599  168.8488 C.ar    1  UNL1        0.0520
      7 C         142.9212  140.4654  169.7193 C.ar    1  UNL1        0.0553
      8 N         143.4341  139.8010  170.9625 N.pl3   1  UNL1       -0.3563
      9 C         143.4056  141.8352  169.3466 C.ar    1  UNL1        0.0709
     10 CL        144.4029  142.5406  170.2170 Cl      1  UNL1       -0.0810
     11 C         142.8927  142.4995  168.1034 C.ar    1  UNL1        0.0202
     12 C         141.8954  141.7941  167.2330 C.ar    1  UNL1        0.0882
     13 H         143.1162  138.9019  171.2071 H       1  UNL1        0.1424
     14 H         144.0887  140.2640  171.5338 H       1  UNL1        0.1424
     15 C         139.0119  139.5030  167.2237 C.3     1  UNL1        0.2525
     16 O         140.4136  139.7188  166.7352 O.3     1  UNL1       -0.4712
     17 C         141.8328  143.6164  163.7080 C.3     1  UNL1        0.0746
     18 C         142.0108  142.9525  162.3748 C.3     1  UNL1        0.0369
     19 C         141.4979  143.6169  161.1316 C.3     1  UNL1        0.0741
     20 N         140.8071  144.9453  161.2216 N.3     1  UNL1       -0.2689
     21 C         140.6291  145.6093  162.5549 C.3     1  UNL1        0.0741
     22 C         141.1419  144.9449  163.7980 C.3     1  UNL1        0.0369
     23 C         140.2942  145.6097  159.9785 C.3     1  UNL1        0.0991
     24 C         140.6498  145.0555  158.6307 C.ar    1  UNL1       -0.0061
     25 C         141.8416  145.5876  157.8916 C.ar    1  UNL1       -0.0029
     26 C         142.1972  145.0334  156.5438 C.ar    1  UNL1       -0.0003
     27 C         141.3608  143.9472  155.9351 C.ar    1  UNL1       -0.0000
     28 C         140.1688  143.4151  156.6742 C.ar    1  UNL1       -0.0003
     29 C         139.8133  143.9692  158.0220 C.ar    1  UNL1       -0.0029
@<TRIPOS>BOND
     1    15    16    1
     2    16     5    1
     3     5     6   ar
     4     6     7   ar
     5     7     8    1
     6     7     9   ar
     7     9    10    1
     8     9    11   ar
     9    11    12   ar
    10    12     1    1
    11     1     2    2
    12     1     3   am
    13     3    17    1
    14    17    18    1
    15    18    19    1
    16    19    20    1
    17    20    23    1
    18    23    24    1
    19    24    25   ar
    20    25    26   ar
    21    26    27   ar
    22    27    28   ar
    23    28    29   ar
    24    20    21    1
    25    21    22    1
    26    12     5   ar
    27    22    17    1
    28    29    24   ar
    29     8    13    1
    30     8    14    1
    31     3     4    1
@<TRIPOS>MOLECULE
*****
 29 31 0 0 0
SMALL
GASTEIGER

@<TRIPOS>ATOM
      1 C         139.1794  142.5381  159.5926 C.2     1  UNL1        0.2488
      2 O         140.4039  141.7516  159.9560 O.2     1  UNL1       -0.2700
      3 N         138.0156  142.5930  160.5374 N.am    1  UNL1       -0.3023
      4 H         137.2120  143.1092  160.2989 H       1  UNL1        0.1497
      5 C         138.1565  142.8278  157.2220 C.ar    1  UNL1        0.1443
      6 C         138.0958  143.5593  155.9140 C.ar    1  UNL1        0.0520
      7 C         138.9973  144.7328  155.6683 C.ar    1  UNL1        0.0553
      8 N         138.9366  145.4643  154.3602 N.pl3   1  UNL1       -0.3563
      9 C         139.9595  145.1746  156.7308 C.ar    1  UNL1        0.0709
     10 CL        140.8610  146.3480  156.4852 Cl      1  UNL1       -0.0810
     11 C         140.0202  144.4431  158.0389 C.ar    1  UNL1        0.0202
     12 C         139.1187  143.2696  158.2845 C.ar    1  UNL1        0.0882
     13 H         138.3050  145.1743  153.6629 H       1  UNL1        0.1424
     14 H         139.5283  146.2345  154.1990 H       1  UNL1        0.1424
     15 C         136.4447  141.0826  156.3423 C.3     1  UNL1        0.2525
     16 O         137.2550  141.6543  157.4676 O.3     1  UNL1       -0.4712
     17 C         138.0763  141.8615  161.8455 C.3     1  UNL1        0.0746
     18 C         138.0601  140.3617  161.8676 C.3     1  UNL1        0.0369
     19 C         138.1208  139.6302  163.1757 C.3     1  UNL1        0.0741
     20 N         138.1977  140.3984  164.4617 N.3     1  UNL1       -0.2689
     21 C         138.2140  141.8982  164.4397 C.3     1  UNL1        0.0741
     22 C         138.1533  142.6297  163.1316 C.3     1  UNL1        0.0369
     23 C         138.2584  139.6669  165.7698 C.3     1  UNL1        0.0991
     24 C         139.5139  139.6997  166.5899 C.ar    1  UNL1       -0.0061
     25 C         139.4467  140.0301  168.0515 C.ar    1  UNL1       -0.0029
     26 C         140.7022  140.0628  168.8716 C.ar    1  UNL1       -0.0003
     27 C         142.0250  139.7651  168.2301 C.ar    1  UNL1       -0.0000
     28 C         142.0923  139.4347  166.7684 C.ar    1  UNL1       -0.0003
     29 C         140.8368  139.4020  165.9484 C.ar    1  UNL1       -0.0029
@<TRIPOS>BOND
     1    15    16    1
     2    16     5    1
     3     5     6   ar
     4     6     7   ar
     5     7     8    1
     6     7     9   ar
     7     9    10    1
     8     9    11   ar
     9    11    12   ar
    10    12     1    1
    11     1     2    2
    12     1     3   am
    13     3    17    1
    14    17    18    1
    15    18    19    1
    16    19    20    1
    17    20    23    1
    18    23    24    1
    19    24    25   ar
    20    25    26   ar
    21    26    27   ar
    22    27    28   ar
    23    28    29   ar
    24    20    21    1
    25    21    22    1
    26    12     5   ar
    27    22    17    1
    28    29    24   ar
    29     8    13    1
    30     8    14    1
    31     3     4    1
@<TRIPOS>MOLECULE
*****
 29 31 0 0 0
SMALL
GASTEIGER

@<TRIPOS>ATOM
      1 C         142.8989  142.5345  159.3571 C.2     1  UNL1        0.2488
      2 O         143.5516  142.4777  158.0078 O.2     1  UNL1       -0.2700
      3 N         141.6734  143.3748  159.5626 N.am    1  UNL1       -0.3023
      4 H         141.2450  143.4121  160.4482 H       1  UNL1        0.1497
      5 C         144.0539  142.4670  161.6834 C.ar    1  UNL1        0.1443
      6 C         144.6265  141.6835  162.8271 C.ar    1  UNL1        0.0520
      7 C         144.6167  140.1841  162.7884 C.ar    1  UNL1        0.0553
      8 N         145.1894  139.4006  163.9323 N.pl3   1  UNL1       -0.3563
      9 C         144.0344  139.4681  161.6060 C.ar    1  UNL1        0.0709
     10 CL        144.0246  137.9686  161.5674 Cl      1  UNL1       -0.0810
     11 C         143.4617  140.2516  160.4623 C.ar    1  UNL1        0.0202
     12 C         143.4715  141.7510  160.5009 C.ar    1  UNL1        0.0882
     13 H         145.5716  139.8705  164.7084 H       1  UNL1        0.1424
     14 H         145.1830  138.4164  163.9069 H       1  UNL1        0.1424
     15 C         143.5428  144.6890  162.9289 C.3     1  UNL1        0.2525
     16 O         144.0637  143.9665  161.7220 O.3     1  UNL1       -0.4712
     17 C         141.1008  144.1583  158.4189 C.3     1  UNL1        0.0746
     18 C         141.6852  145.4911  158.0557 C.3     1  UNL1        0.0369
     19 C         141.1124  146.2746  156.9119 C.3     1  UNL1        0.0741
     20 N         139.9554  145.7252  156.1313 N.3     1  UNL1       -0.2689
     21 C         139.3710  144.3923  156.4945 C.3     1  UNL1        0.0741
     22 C         139.9436  143.6088  157.6383 C.3     1  UNL1        0.0369
     23 C         139.3827  146.5086  154.9876 C.3     1  UNL1        0.0991
     24 C         139.3182  148.0054  155.0616 C.ar    1  UNL1       -0.0061
     25 C         138.4900  148.6689  156.1216 C.ar    1  UNL1       -0.0029
     26 C         138.4254  150.1657  156.1956 C.ar    1  UNL1       -0.0003
     27 C         139.1891  150.9990  155.2096 C.ar    1  UNL1       -0.0000
     28 C         140.0173  150.3355  154.1494 C.ar    1  UNL1       -0.0003
     29 C         140.0819  148.8387  154.0754 C.ar    1  UNL1       -0.0029
@<TRIPOS>BOND
     1    15    16    1
     2    16     5    1
     3     5     6   ar
     4     6     7   ar
     5     7     8    1
     6     7     9   ar
     7     9    10    1
     8     9    11   ar
     9    11    12   ar
    10    12     1    1
    11     1     2    2
    12     1     3   am
    13     3    17    1
    14    17    18    1
    15    18    19    1
    16    19    20    1
    17    20    23    1
    18    23    24    1
    19    24    25   ar
    20    25    26   ar
    21    26    27   ar
    22    27    28   ar
    23    28    29   ar
    24    20    21    1
    25    21    22    1
    26    12     5   ar
    27    22    17    1
    28    29    24   ar
    29     8    13    1
    30     8    14    1
    31     3     4    1
@<TRIPOS>MOLECULE
*****
 29 31 0 0 0
SMALL
GASTEIGER

@<TRIPOS>ATOM
      1 C         140.7479  141.5481  165.6628 C.2     1  UNL1        0.2488
      2 O         139.4055  142.0393  165.2082 O.2     1  UNL1       -0.2700
      3 N         141.5776  140.6871  164.7571 N.am    1  UNL1       -0.3023
      4 H         142.4586  140.3648  165.0554 H       1  UNL1        0.1497
      5 C         142.7314  142.1157  167.2419 C.ar    1  UNL1        0.1443
      6 C         143.2441  142.4855  168.6022 C.ar    1  UNL1        0.0520
      7 C         142.2861  142.6576  169.7436 C.ar    1  UNL1        0.0553
      8 N         142.7989  143.0274  171.1039 N.pl3   1  UNL1       -0.3563
      9 C         140.8154  142.4598  169.5247 C.ar    1  UNL1        0.0709
     10 CL        139.8575  142.6319  170.6661 Cl      1  UNL1       -0.0810
     11 C         140.3027  142.0900  168.1644 C.ar    1  UNL1        0.0202
     12 C         141.2607  141.9180  167.0231 C.ar    1  UNL1        0.0882
     13 H         143.7642  143.1572  171.2475 H       1  UNL1        0.1424
     14 H         142.1702  143.1403  171.8530 H       1  UNL1        0.1424
     15 C         144.2870  143.1478  165.4351 C.3     1  UNL1        0.2525
     16 O         143.6893  141.9437  166.1006 O.3     1  UNL1       -0.4712
     17 C         141.0648  140.3173  163.3968 C.3     1  UNL1        0.0746
     18 C         141.1644  141.2975  162.2657 C.3     1  UNL1        0.0369
     19 C         140.6517  140.9276  160.9054 C.3     1  UNL1        0.0741
     20 N         140.0393  139.5776  160.6763 N.3     1  UNL1       -0.2689
     21 C         139.9397  138.5974  161.8074 C.3     1  UNL1        0.0741
     22 C         140.4525  138.9673  163.1676 C.3     1  UNL1        0.0369
     23 C         139.5266  139.2078  159.3161 C.3     1  UNL1        0.0991
     24 C         140.3839  138.4030  158.3847 C.ar    1  UNL1       -0.0061
     25 C         139.7770  137.7625  157.1717 C.ar    1  UNL1       -0.0029
     26 C         140.6342  136.9577  156.2403 C.ar    1  UNL1       -0.0003
     27 C         142.0984  136.7935  156.5219 C.ar    1  UNL1       -0.0000
     28 C         142.7053  137.4341  157.7349 C.ar    1  UNL1       -0.0003
     29 C         141.8481  138.2388  158.6663 C.ar    1  UNL1       -0.0029
@<TRIPOS>BOND
     1    15    16    1
     2    16     5    1
     3     5     6   ar
     4     6     7   ar
     5     7     8    1
     6     7     9   ar
     7     9    10    1
     8     9    11   ar
     9    11    12   ar
    10    12     1    1
    11     1     2    2
    12     1     3   am
    13     3    17    1
    14    17    18    1
    15    18    19    1
    16    19    20    1
    17    20    23    1
    18    23    24    1
    19    24    25   ar
    20    25    26   ar
    21    26    27   ar
    22    27    28   ar
    23    28    29   ar
    24    20    21    1
    25    21    22    1
    26    12     5   ar
    27    22    17    1
    28    29    24   ar
    29     8    13    1
    30     8    14    1
    31     3     4    1
