@<TRIPOS>MOLECULE
*****
 22 23 0 0 0
SMALL
GASTEIGER

@<TRIPOS>ATOM
      1 C         140.3839  140.4552  166.2385 C.3     1  UNL1        0.0459
      2 C         141.7520  140.0637  165.7642 C.ar    1  UNL1       -0.0184
      3 C         142.4961  138.9575  166.4517 C.ar    1  UNL1       -0.0040
      4 C         143.8642  138.5660  165.9773 C.ar    1  UNL1       -0.0003
      5 C         144.4882  139.2806  164.8155 C.ar    1  UNL1       -0.0000
      6 C         143.7441  140.3868  164.1280 C.ar    1  UNL1       -0.0003
      7 C         142.3760  140.7783  164.6023 C.ar    1  UNL1       -0.0040
      8 C         140.2162  141.1357  167.5647 C.ar    1  UNL1       -0.0184
      9 C         139.6351  140.3839  168.7253 C.ar    1  UNL1       -0.0040
     10 C         139.4673  141.0644  170.0515 C.ar    1  UNL1       -0.0003
     11 C         139.8807  142.4967  170.2171 C.ar    1  UNL1       -0.0000
     12 C         140.4619  143.2486  169.0565 C.ar    1  UNL1       -0.0003
     13 C         140.6296  142.5681  167.7303 C.ar    1  UNL1       -0.0040
     14 C         139.1836  140.1663  165.3867 C.3     1  UNL1        0.0244
     15 C         137.9502  138.1591  166.4822 C.3     1  UNL1        0.0171
     16 C         138.6437  138.7694  165.3004 C.3     1  UNL1        0.0546
     17 N         138.7974  137.9830  164.0324 N.3     1  UNL1       -0.3006
     18 H         138.1918  138.4216  163.3387 H       1  UNL1        0.1231
     19 C         140.1491  137.8391  163.3983 C.3     1  UNL1        0.0420
     20 C         139.7462  138.8022  162.3212 C.3     1  UNL1        0.0158
     21 C         140.5519  136.8760  164.4753 C.3     1  UNL1        0.0158
     22 C         141.5008  137.6953  162.7641 C.3     1  UNL1        0.0158
@<TRIPOS>BOND
     1    15    16    1
     2    16    14    1
     3    14     1    1
     4     1     2    1
     5     2     3   ar
     6     3     4   ar
     7     4     5   ar
     8     5     6   ar
     9     6     7   ar
    10     1     8    1
    11     8     9   ar
    12     9    10   ar
    13    10    11   ar
    14    11    12   ar
    15    12    13   ar
    16    16    17    1
    17    17    19    1
    18    19    20    1
    19    19    21    1
    20    19    22    1
    21     7     2   ar
    22    13     8   ar
    23    17    18    1
@<TRIPOS>MOLECULE
*****
 22 23 0 0 0
SMALL
GASTEIGER

@<TRIPOS>ATOM
      1 C         140.3911  140.4612  166.2269 C.3     1  UNL1        0.0459
      2 C         140.2207  141.1381  167.5546 C.ar    1  UNL1       -0.0184
      3 C         140.6266  142.5723  167.7228 C.ar    1  UNL1       -0.0040
      4 C         140.4562  143.2491  169.0505 C.ar    1  UNL1       -0.0003
      5 C         139.8799  142.4918  170.2099 C.ar    1  UNL1       -0.0000
      6 C         139.4740  141.0576  170.0417 C.ar    1  UNL1       -0.0003
      7 C         139.6444  140.3808  168.7141 C.ar    1  UNL1       -0.0040
      8 C         141.7601  140.0703  165.7545 C.ar    1  UNL1       -0.0184
      9 C         142.5037  138.9645  166.4431 C.ar    1  UNL1       -0.0040
     10 C         143.8727  138.5736  165.9708 C.ar    1  UNL1       -0.0003
     11 C         144.4980  139.2885  164.8099 C.ar    1  UNL1       -0.0000
     12 C         143.7544  140.3944  164.1212 C.ar    1  UNL1       -0.0003
     13 C         142.3854  140.7853  164.5936 C.ar    1  UNL1       -0.0040
     14 C         139.1925  140.1751  165.3715 C.3     1  UNL1        0.0244
     15 C         137.9607  138.1632  166.4601 C.3     1  UNL1        0.0171
     16 C         138.6524  138.7787  165.2800 C.3     1  UNL1        0.0546
     17 N         138.8041  137.9977  164.0083 N.3     1  UNL1       -0.3006
     18 H         138.2041  138.4446  163.3150 H       1  UNL1        0.1231
     19 C         140.1566  137.8469  163.3776 C.3     1  UNL1        0.0420
     20 C         139.7579  138.8038  162.2936 C.3     1  UNL1        0.0158
     21 C         140.5554  136.8899  164.4617 C.3     1  UNL1        0.0158
     22 C         141.5092  137.6960  162.7469 C.3     1  UNL1        0.0158
@<TRIPOS>BOND
     1    15    16    1
     2    16    14    1
     3    14     1    1
     4     1     2    1
     5     2     3   ar
     6     3     4   ar
     7     4     5   ar
     8     5     6   ar
     9     6     7   ar
    10     1     8    1
    11     8     9   ar
    12     9    10   ar
    13    10    11   ar
    14    11    12   ar
    15    12    13   ar
    16    16    17    1
    17    17    19    1
    18    19    20    1
    19    19    21    1
    20    19    22    1
    21     7     2   ar
    22    13     8   ar
    23    17    18    1
@<TRIPOS>MOLECULE
*****
 22 23 0 0 0
SMALL
GASTEIGER

@<TRIPOS>ATOM
      1 C         140.4076  141.9994  166.1475 C.3     1  UNL1        0.0459
      2 C         141.1053  142.3169  167.4370 C.ar    1  UNL1       -0.0184
      3 C         142.5338  141.9059  167.6377 C.ar    1  UNL1       -0.0040
      4 C         143.2315  142.2234  168.9270 C.ar    1  UNL1       -0.0003
      5 C         142.5006  142.9518  170.0157 C.ar    1  UNL1       -0.0000
      6 C         141.0720  143.3628  169.8150 C.ar    1  UNL1       -0.0003
      7 C         140.3744  143.0453  168.5256 C.ar    1  UNL1       -0.0040
      8 C         139.9716  140.5939  165.8570 C.ar    1  UNL1       -0.0184
      9 C         138.7535  140.0325  166.5287 C.ar    1  UNL1       -0.0040
     10 C         138.3175  138.6270  166.2382 C.ar    1  UNL1       -0.0003
     11 C         139.0995  137.7829  165.2760 C.ar    1  UNL1       -0.0000
     12 C         140.3176  138.3442  164.6043 C.ar    1  UNL1       -0.0003
     13 C         140.7536  139.7498  164.8948 C.ar    1  UNL1       -0.0040
     14 C         140.1459  143.0875  165.1487 C.3     1  UNL1        0.0244
     15 C         138.5592  145.0474  165.7740 C.3     1  UNL1        0.0171
     16 C         138.7953  143.7369  165.0836 C.3     1  UNL1        0.0546
     17 N         137.6809  143.0757  164.3280 N.3     1  UNL1       -0.3006
     18 H         136.8888  143.7179  164.3498 H       1  UNL1        0.1231
     19 C         137.8781  142.6798  162.8947 C.3     1  UNL1        0.0420
     20 C         137.5710  141.2543  163.2462 C.3     1  UNL1        0.0158
     21 C         138.1851  144.1053  162.5432 C.3     1  UNL1        0.0158
     22 C         138.0752  142.2839  161.4614 C.3     1  UNL1        0.0158
@<TRIPOS>BOND
     1    15    16    1
     2    16    14    1
     3    14     1    1
     4     1     2    1
     5     2     3   ar
     6     3     4   ar
     7     4     5   ar
     8     5     6   ar
     9     6     7   ar
    10     1     8    1
    11     8     9   ar
    12     9    10   ar
    13    10    11   ar
    14    11    12   ar
    15    12    13   ar
    16    16    17    1
    17    17    19    1
    18    19    20    1
    19    19    21    1
    20    19    22    1
    21     7     2   ar
    22    13     8   ar
    23    17    18    1
@<TRIPOS>MOLECULE
*****
 22 23 0 0 0
SMALL
GASTEIGER

@<TRIPOS>ATOM
      1 C         141.5538  141.1929  166.3230 C.3     1  UNL1        0.0459
      2 C         142.3178  142.2978  165.6555 C.ar    1  UNL1       -0.0184
      3 C         143.7365  142.5765  166.0552 C.ar    1  UNL1       -0.0040
      4 C         144.5004  143.6814  165.3878 C.ar    1  UNL1       -0.0003
      5 C         143.8458  144.5076  164.3206 C.ar    1  UNL1       -0.0000
      6 C         142.4272  144.2289  163.9209 C.ar    1  UNL1       -0.0003
      7 C         141.6632  143.1240  164.5884 C.ar    1  UNL1       -0.0040
      8 C         140.8809  141.4364  167.6413 C.ar    1  UNL1       -0.0184
      9 C         140.9700  142.7854  168.2910 C.ar    1  UNL1       -0.0040
     10 C         140.2971  143.0289  169.6093 C.ar    1  UNL1       -0.0003
     11 C         139.5351  141.9234  170.2779 C.ar    1  UNL1       -0.0000
     12 C         139.4460  140.5743  169.6283 C.ar    1  UNL1       -0.0003
     13 C         140.1189  140.3308  168.3100 C.ar    1  UNL1       -0.0040
     14 C         141.4627  139.8445  165.6722 C.3     1  UNL1        0.0244
     15 C         143.4020  138.4145  166.6438 C.3     1  UNL1        0.0171
     16 C         142.7026  139.0258  165.4661 C.3     1  UNL1        0.0546
     17 N         143.2430  138.8185  164.0822 N.3     1  UNL1       -0.3006
     18 H         142.4675  138.4836  163.5104 H       1  UNL1        0.1231
     19 C         143.8647  139.9643  163.3404 C.3     1  UNL1        0.0420
     20 C         145.1081  139.8253  164.1678 C.3     1  UNL1        0.0158
     21 C         142.6213  140.1034  162.5130 C.3     1  UNL1        0.0158
     22 C         144.4865  141.1102  162.5985 C.3     1  UNL1        0.0158
@<TRIPOS>BOND
     1    15    16    1
     2    16    14    1
     3    14     1    1
     4     1     2    1
     5     2     3   ar
     6     3     4   ar
     7     4     5   ar
     8     5     6   ar
     9     6     7   ar
    10     1     8    1
    11     8     9   ar
    12     9    10   ar
    13    10    11   ar
    14    11    12   ar
    15    12    13   ar
    16    16    17    1
    17    17    19    1
    18    19    20    1
    19    19    21    1
    20    19    22    1
    21     7     2   ar
    22    13     8   ar
    23    17    18    1
@<TRIPOS>MOLECULE
*****
 22 23 0 0 0
SMALL
GASTEIGER

@<TRIPOS>ATOM
      1 C         141.5448  141.1925  166.3204 C.3     1  UNL1        0.0459
      2 C         140.8707  141.4359  167.6382 C.ar    1  UNL1       -0.0184
      3 C         140.9651  142.7828  168.2915 C.ar    1  UNL1       -0.0040
      4 C         140.2911  143.0262  169.6092 C.ar    1  UNL1       -0.0003
      5 C         139.5227  141.9226  170.2737 C.ar    1  UNL1       -0.0000
      6 C         139.4283  140.5756  169.6204 C.ar    1  UNL1       -0.0003
      7 C         140.1023  140.3323  168.3027 C.ar    1  UNL1       -0.0040
      8 C         142.3116  142.2967  165.6550 C.ar    1  UNL1       -0.0184
      9 C         141.6584  143.1276  164.5907 C.ar    1  UNL1       -0.0040
     10 C         142.4252  144.2318  163.9252 C.ar    1  UNL1       -0.0003
     11 C         143.8451  144.5050  164.3241 C.ar    1  UNL1       -0.0000
     12 C         144.4983  143.6740  165.3885 C.ar    1  UNL1       -0.0003
     13 C         143.7316  142.5698  166.0539 C.ar    1  UNL1       -0.0040
     14 C         141.4520  139.8449  165.6682 C.3     1  UNL1        0.0244
     15 C         143.4068  138.4188  166.6143 C.3     1  UNL1        0.0171
     16 C         142.6931  139.0321  165.4462 C.3     1  UNL1        0.0546
     17 N         143.2203  138.8326  164.0562 N.3     1  UNL1       -0.3006
     18 H         142.4329  138.5284  163.4835 H       1  UNL1        0.1231
     19 C         143.8693  139.9729  163.3293 C.3     1  UNL1        0.0420
     20 C         142.6361  140.1412  162.4922 C.3     1  UNL1        0.0158
     21 C         145.1025  139.8045  164.1664 C.3     1  UNL1        0.0158
     22 C         144.5184  141.1132  162.6025 C.3     1  UNL1        0.0158
@<TRIPOS>BOND
     1    15    16    1
     2    16    14    1
     3    14     1    1
     4     1     2    1
     5     2     3   ar
     6     3     4   ar
     7     4     5   ar
     8     5     6   ar
     9     6     7   ar
    10     1     8    1
    11     8     9   ar
    12     9    10   ar
    13    10    11   ar
    14    11    12   ar
    15    12    13   ar
    16    16    17    1
    17    17    19    1
    18    19    20    1
    19    19    21    1
    20    19    22    1
    21     7     2   ar
    22    13     8   ar
    23    17    18    1
@<TRIPOS>MOLECULE
*****
 22 23 0 0 0
SMALL
GASTEIGER

@<TRIPOS>ATOM
      1 C         141.5456  141.2052  166.3150 C.3     1  UNL1        0.0459
      2 C         142.3119  142.3105  165.6507 C.ar    1  UNL1       -0.0184
      3 C         141.6570  143.1452  164.5904 C.ar    1  UNL1       -0.0040
      4 C         142.4232  144.2505  163.9262 C.ar    1  UNL1       -0.0003
      5 C         143.8444  144.5211  164.3224 C.ar    1  UNL1       -0.0000
      6 C         144.4993  143.6865  165.3828 C.ar    1  UNL1       -0.0003
      7 C         143.7331  142.5812  166.0469 C.ar    1  UNL1       -0.0040
      8 C         140.8729  141.4462  167.6338 C.ar    1  UNL1       -0.0184
      9 C         140.1012  140.3429  168.2948 C.ar    1  UNL1       -0.0040
     10 C         139.4285  140.5840  169.6137 C.ar    1  UNL1       -0.0003
     11 C         139.5275  141.9284  170.2715 C.ar    1  UNL1       -0.0000
     12 C         140.2993  143.0318  169.6105 C.ar    1  UNL1       -0.0003
     13 C         140.9720  142.7907  168.2916 C.ar    1  UNL1       -0.0040
     14 C         141.4521  139.8588  165.6603 C.3     1  UNL1        0.0244
     15 C         143.3975  138.4266  166.6165 C.3     1  UNL1        0.0171
     16 C         142.6916  139.0419  165.4448 C.3     1  UNL1        0.0546
     17 N         143.2252  138.8404  164.0574 N.3     1  UNL1       -0.3006
     18 H         142.4429  138.5245  163.4841 H       1  UNL1        0.1231
     19 C         143.8640  139.9836  163.3262 C.3     1  UNL1        0.0420
     20 C         142.6241  140.1467  162.4979 C.3     1  UNL1        0.0158
     21 C         145.1039  139.8206  164.1544 C.3     1  UNL1        0.0158
     22 C         144.5029  141.1269  162.5949 C.3     1  UNL1        0.0158
@<TRIPOS>BOND
     1    15    16    1
     2    16    14    1
     3    14     1    1
     4     1     2    1
     5     2     3   ar
     6     3     4   ar
     7     4     5   ar
     8     5     6   ar
     9     6     7   ar
    10     1     8    1
    11     8     9   ar
    12     9    10   ar
    13    10    11   ar
    14    11    12   ar
    15    12    13   ar
    16    16    17    1
    17    17    19    1
    18    19    20    1
    19    19    21    1
    20    19    22    1
    21     7     2   ar
    22    13     8   ar
    23    17    18    1
@<TRIPOS>MOLECULE
*****
 22 23 0 0 0
SMALL
GASTEIGER

@<TRIPOS>ATOM
      1 C         140.8166  141.8178  165.9794 C.3     1  UNL1        0.0459
      2 C         140.1862  140.4720  165.7755 C.ar    1  UNL1       -0.0184
      3 C         138.8583  140.1633  166.4010 C.ar    1  UNL1       -0.0040
      4 C         138.2280  138.8175  166.1971 C.ar    1  UNL1       -0.0003
      5 C         138.9256  137.7805  165.3677 C.ar    1  UNL1       -0.0000
      6 C         140.2535  138.0892  164.7422 C.ar    1  UNL1       -0.0003
      7 C         140.8838  139.4349  164.9461 C.ar    1  UNL1       -0.0040
      8 C         141.3185  142.2130  167.3366 C.ar    1  UNL1       -0.0184
      9 C         140.4133  142.9351  168.2900 C.ar    1  UNL1       -0.0040
     10 C         140.9151  143.3303  169.6472 C.ar    1  UNL1       -0.0003
     11 C         142.3223  143.0034  170.0509 C.ar    1  UNL1       -0.0000
     12 C         143.2276  142.2813  169.0975 C.ar    1  UNL1       -0.0003
     13 C         142.7257  141.8861  167.7403 C.ar    1  UNL1       -0.0040
     14 C         140.9451  142.7683  164.8262 C.3     1  UNL1        0.0244
     15 C         139.0993  144.5766  165.0967 C.3     1  UNL1        0.0171
     16 C         139.7321  143.4756  164.2985 C.3     1  UNL1        0.0546
     17 N         139.1519  143.0817  162.9725 N.3     1  UNL1       -0.3006
     18 H         139.8856  143.2194  162.2774 H       1  UNL1        0.1231
     19 C         138.6181  141.6947  162.7696 C.3     1  UNL1        0.0420
     20 C         139.8127  141.3581  161.9274 C.3     1  UNL1        0.0158
     21 C         137.4234  142.0313  163.6118 C.3     1  UNL1        0.0158
     22 C         138.0842  140.3077  162.5667 C.3     1  UNL1        0.0158
@<TRIPOS>BOND
     1    15    16    1
     2    16    14    1
     3    14     1    1
     4     1     2    1
     5     2     3   ar
     6     3     4   ar
     7     4     5   ar
     8     5     6   ar
     9     6     7   ar
    10     1     8    1
    11     8     9   ar
    12     9    10   ar
    13    10    11   ar
    14    11    12   ar
    15    12    13   ar
    16    16    17    1
    17    17    19    1
    18    19    20    1
    19    19    21    1
    20    19    22    1
    21     7     2   ar
    22    13     8   ar
    23    17    18    1
@<TRIPOS>MOLECULE
*****
 22 23 0 0 0
SMALL
GASTEIGER

@<TRIPOS>ATOM
      1 C         141.7648  141.5827  166.0953 C.3     1  UNL1        0.0459
      2 C         141.7633  142.1639  167.4781 C.ar    1  UNL1       -0.0184
      3 C         142.9884  142.0589  168.3372 C.ar    1  UNL1       -0.0040
      4 C         142.9868  142.6401  169.7200 C.ar    1  UNL1       -0.0003
      5 C         141.7601  143.3263  170.2437 C.ar    1  UNL1       -0.0000
      6 C         140.5350  143.4314  169.3846 C.ar    1  UNL1       -0.0003
      7 C         140.5366  142.8502  168.0019 C.ar    1  UNL1       -0.0040
      8 C         143.0541  141.4451  165.3410 C.ar    1  UNL1       -0.0184
      9 C         143.7867  142.6694  164.8783 C.ar    1  UNL1       -0.0040
     10 C         145.0759  142.5318  164.1240 C.ar    1  UNL1       -0.0003
     11 C         145.6326  141.1698  163.8325 C.ar    1  UNL1       -0.0000
     12 C         144.9000  139.9454  164.2952 C.ar    1  UNL1       -0.0003
     13 C         143.6108  140.0830  165.0495 C.ar    1  UNL1       -0.0040
     14 C         140.4772  141.1391  165.4667 C.3     1  UNL1        0.0244
     15 C         140.2793  140.2398  163.0373 C.3     1  UNL1        0.0171
     16 C         140.2319  141.3830  164.0071 C.3     1  UNL1        0.0546
     17 N         139.9393  142.7703  163.5174 N.3     1  UNL1       -0.3006
     18 H         139.3298  142.6734  162.7053 H       1  UNL1        0.1231
     19 C         139.2884  143.7664  164.4308 C.3     1  UNL1        0.0420
     20 C         140.5492  144.5789  164.4431 C.3     1  UNL1        0.0158
     21 C         138.0276  142.9539  164.4184 C.3     1  UNL1        0.0158
     22 C         138.6376  144.7624  165.3441 C.3     1  UNL1        0.0158
@<TRIPOS>BOND
     1    15    16    1
     2    16    14    1
     3    14     1    1
     4     1     2    1
     5     2     3   ar
     6     3     4   ar
     7     4     5   ar
     8     5     6   ar
     9     6     7   ar
    10     1     8    1
    11     8     9   ar
    12     9    10   ar
    13    10    11   ar
    14    11    12   ar
    15    12    13   ar
    16    16    17    1
    17    17    19    1
    18    19    20    1
    19    19    21    1
    20    19    22    1
    21     7     2   ar
    22    13     8   ar
    23    17    18    1
@<TRIPOS>MOLECULE
*****
 22 23 0 0 0
SMALL
GASTEIGER

@<TRIPOS>ATOM
      1 C         141.2526  142.0002  166.0644 C.3     1  UNL1        0.0459
      2 C         141.5854  142.3524  167.4840 C.ar    1  UNL1       -0.0184
      3 C         140.5477  142.9857  168.3627 C.ar    1  UNL1       -0.0040
      4 C         140.8805  143.3379  169.7822 C.ar    1  UNL1       -0.0003
      5 C         142.2510  143.0568  170.3231 C.ar    1  UNL1       -0.0000
      6 C         143.2887  142.4235  169.4445 C.ar    1  UNL1       -0.0003
      7 C         142.9559  142.0713  168.0250 C.ar    1  UNL1       -0.0040
      8 C         140.0959  142.6645  165.3783 C.ar    1  UNL1       -0.0184
      9 C         138.8592  141.8772  165.0614 C.ar    1  UNL1       -0.0040
     10 C         137.7024  142.5414  164.3753 C.ar    1  UNL1       -0.0003
     11 C         137.7825  143.9930  164.0060 C.ar    1  UNL1       -0.0000
     12 C         139.0193  144.7805  164.3229 C.ar    1  UNL1       -0.0003
     13 C         140.1760  144.1162  165.0091 C.ar    1  UNL1       -0.0040
     14 C         142.0766  140.9838  165.3310 C.3     1  UNL1        0.0244
     15 C         141.7001  140.6806  162.7782 C.3     1  UNL1        0.0171
     16 C         142.5008  141.2422  163.9155 C.3     1  UNL1        0.0546
     17 N         143.7257  142.0621  163.6375 N.3     1  UNL1       -0.3006
     18 H         143.9737  141.8995  162.6616 H       1  UNL1        0.1231
     19 C         143.6936  143.5488  163.8341 C.3     1  UNL1        0.0420
     20 C         144.5297  143.4033  165.0709 C.3     1  UNL1        0.0158
     21 C         142.8574  143.6943  162.5973 C.3     1  UNL1        0.0158
     22 C         143.6614  145.0355  164.0307 C.3     1  UNL1        0.0158
@<TRIPOS>BOND
     1    15    16    1
     2    16    14    1
     3    14     1    1
     4     1     2    1
     5     2     3   ar
     6     3     4   ar
     7     4     5   ar
     8     5     6   ar
     9     6     7   ar
    10     1     8    1
    11     8     9   ar
    12     9    10   ar
    13    10    11   ar
    14    11    12   ar
    15    12    13   ar
    16    16    17    1
    17    17    19    1
    18    19    20    1
    19    19    21    1
    20    19    22    1
    21     7     2   ar
    22    13     8   ar
    23    17    18    1
