@<TRIPOS>MOLECULE
*****
 34 38 0 0 0
SMALL
GASTEIGER

@<TRIPOS>ATOM
      1 C         141.9522  141.0573  166.6118 C.ar    1  UNL1        0.0878
      2 C         142.9731  142.1551  166.5587 C.ar    1  UNL1        0.1543
      3 F         143.5027  142.7490  167.8302 F       1  UNL1       -0.2028
      4 C         143.4644  142.6588  165.2340 C.ar    1  UNL1        0.0356
      5 C         142.9348  142.0649  163.9625 C.ar    1  UNL1        0.0580
      6 C         143.4261  142.5688  162.6377 C.ar    1  UNL1        0.1996
      7 O         144.4469  143.6665  162.5846 O.2     1  UNL1       -0.2864
      8 C         142.8965  141.9749  161.3662 C.ar    1  UNL1        0.0701
      9 C         141.8756  140.8771  161.4194 C.ar    1  UNL1        0.0801
     10 N         141.3844  140.3733  162.7440 N.ar    1  UNL1       -0.3270
     11 C         141.9139  140.9672  164.0156 C.ar    1  UNL1        0.0750
     12 C         141.4227  140.4634  165.3403 C.ar    1  UNL1        0.0890
     13 CL        140.4018  139.3657  165.3934 Cl      1  UNL1       -0.0794
     14 C         140.0268  140.0656  169.8328 C.3     1  UNL1        0.0930
     15 C         141.3828  139.4908  170.1171 C.3     1  UNL1        0.0427
     16 C         142.2691  139.7923  168.9451 C.3     1  UNL1        0.0927
     17 N         141.4609  140.5535  167.9365 N.pl3   1  UNL1       -0.3033
     18 C         140.0751  140.7224  168.4851 C.3     1  UNL1        0.1104
     19 O         137.4700  138.8425  168.8495 O.2     1  UNL1       -0.2729
     20 C         137.5539  139.3844  170.2458 C.2     1  UNL1        0.2493
     21 N         138.8323  139.9959  170.7374 N.am    1  UNL1       -0.3025
     22 H         138.8873  140.3516  171.6538 H       1  UNL1        0.1495
     23 C         136.3594  139.3147  171.1503 C.3     1  UNL1        0.2355
     24 N         136.0876  138.0681  171.9391 N.ar    1  UNL1       -0.1413
     25 N         135.1919  137.9607  173.1375 N.ar    1  UNL1       -0.1259
     26 C         135.2146  136.5362  173.6069 C.ar    1  UNL1        0.2448
     27 N         136.1243  135.7633  172.6988 N.ar    1  UNL1       -0.1044
     28 N         136.6639  136.7100  171.6680 N.ar    1  UNL1       -0.0445
     29 C         143.3878  142.4787  160.0415 C.2     1  UNL1        0.0774
     30 O         142.9815  143.8396  159.5592 O.co2   1  UNL1       -0.5444
     31 O         144.2854  141.6215  159.1991 O.co2   1  UNL1       -0.5444
     32 C         140.3635  139.2756  162.7972 C.3     1  UNL1        0.0857
     33 C         138.9317  138.8360  162.8793 C.3     1  UNL1        0.0245
     34 C         140.0271  137.8139  162.8071 C.3     1  UNL1        0.0245
@<TRIPOS>UNITY_ATOM_ATTR
30 1
charge -1
@<TRIPOS>BOND
     1    19    20    2
     2    20    23    1
     3    23    24    1
     4    24    25   ar
     5    25    26   ar
     6    26    27   ar
     7    27    28   ar
     8    20    21   am
     9    21    14    1
    10    14    15    1
    11    15    16    1
    12    16    17    1
    13    17     1    1
    14     1     2   ar
    15     2     3    1
    16     2     4   ar
    17     4     5   ar
    18     5     6   ar
    19     6     7    2
    20     6     8   ar
    21     8    29    1
    22    29    30   ar
    23    29    31   ar
    24     8     9   ar
    25     9    10   ar
    26    10    32    1
    27    32    33    1
    28    33    34    1
    29    10    11   ar
    30    11    12   ar
    31    12    13    1
    32    17    18    1
    33    28    24   ar
    34    18    14    1
    35    12     1   ar
    36    11     5   ar
    37    34    32    1
    38    21    22    1
@<TRIPOS>MOLECULE
*****
 34 38 0 0 0
SMALL
GASTEIGER

@<TRIPOS>ATOM
      1 C         140.0313  139.5185  162.9481 C.ar    1  UNL1        0.0878
      2 C         138.8886  138.7172  163.4975 C.ar    1  UNL1        0.1543
      3 F         138.0395  137.8925  162.5762 F       1  UNL1       -0.2028
      4 C         138.5949  138.7407  164.9683 C.ar    1  UNL1        0.0356
      5 C         139.4440  139.5655  165.8896 C.ar    1  UNL1        0.0580
      6 C         139.1502  139.5889  167.3604 C.ar    1  UNL1        0.1996
      7 O         138.0074  138.7877  167.9099 O.2     1  UNL1       -0.2864
      8 C         139.9993  140.4137  168.2817 C.ar    1  UNL1        0.0701
      9 C         141.1422  141.2150  167.7322 C.ar    1  UNL1        0.0801
     10 N         141.4359  141.1915  166.2614 N.ar    1  UNL1       -0.3270
     11 C         140.5868  140.3668  165.3401 C.ar    1  UNL1        0.0750
     12 C         140.8804  140.3433  163.8694 C.ar    1  UNL1        0.0890
     13 CL        142.0233  141.1446  163.3199 Cl      1  UNL1       -0.0794
     14 C         141.0871  138.7798  159.2867 C.3     1  UNL1        0.0930
     15 C         140.4672  140.1380  159.1413 C.3     1  UNL1        0.0427
     16 C         139.9963  140.5800  160.4951 C.3     1  UNL1        0.0927
     17 N         140.3251  139.4951  161.4773 N.pl3   1  UNL1       -0.3033
     18 C         140.9993  138.3825  160.7305 C.3     1  UNL1        0.1104
     19 O         139.3401  137.6851  157.1073 O.2     1  UNL1       -0.2729
     20 C         140.8156  137.4151  157.0926 C.2     1  UNL1        0.2493
     21 N         141.6891  137.9625  158.1824 N.am    1  UNL1       -0.3025
     22 H         142.6575  137.7854  158.1728 H       1  UNL1        0.1495
     23 C         141.4176  136.5978  155.9883 C.3     1  UNL1        0.2355
     24 N         142.0955  135.2970  156.3018 N.ar    1  UNL1       -0.1413
     25 N         143.2139  135.0992  157.2815 N.ar    1  UNL1       -0.1259
     26 C         143.5835  133.6455  157.2759 C.ar    1  UNL1        0.2448
     27 N         142.6935  132.9448  156.2927 N.ar    1  UNL1       -0.1044
     28 N         141.7738  133.9654  155.6907 N.ar    1  UNL1       -0.0445
     29 C         139.7056  140.4372  169.7525 C.2     1  UNL1        0.0774
     30 O         140.2941  139.3906  170.6516 O.co2   1  UNL1       -0.5444
     31 O         138.8234  141.5073  170.3242 O.co2   1  UNL1       -0.5444
     32 C         142.5786  141.9928  165.7120 C.3     1  UNL1        0.0857
     33 C         144.0248  142.0987  165.3280 C.3     1  UNL1        0.0245
     34 C         143.1119  143.2747  165.1444 C.3     1  UNL1        0.0245
@<TRIPOS>UNITY_ATOM_ATTR
30 1
charge -1
@<TRIPOS>BOND
     1    19    20    2
     2    20    23    1
     3    23    24    1
     4    24    25   ar
     5    25    26   ar
     6    26    27   ar
     7    27    28   ar
     8    20    21   am
     9    21    14    1
    10    14    15    1
    11    15    16    1
    12    16    17    1
    13    17     1    1
    14     1     2   ar
    15     2     3    1
    16     2     4   ar
    17     4     5   ar
    18     5     6   ar
    19     6     7    2
    20     6     8   ar
    21     8    29    1
    22    29    30   ar
    23    29    31   ar
    24     8     9   ar
    25     9    10   ar
    26    10    32    1
    27    32    33    1
    28    33    34    1
    29    10    11   ar
    30    11    12   ar
    31    12    13    1
    32    17    18    1
    33    28    24   ar
    34    18    14    1
    35    12     1   ar
    36    11     5   ar
    37    34    32    1
    38    21    22    1
@<TRIPOS>MOLECULE
*****
 34 38 0 0 0
SMALL
GASTEIGER

@<TRIPOS>ATOM
      1 C         139.2210  139.7071  163.8406 C.ar    1  UNL1        0.0878
      2 C         138.8248  138.6751  164.8545 C.ar    1  UNL1        0.1543
      3 F         138.2628  137.3590  164.4050 F       1  UNL1       -0.2028
      4 C         138.9905  138.9593  166.3180 C.ar    1  UNL1        0.0356
      5 C         139.5525  140.2754  166.7675 C.ar    1  UNL1        0.0580
      6 C         139.7182  140.5595  168.2311 C.ar    1  UNL1        0.1996
      7 O         139.3220  139.5276  169.2450 O.2     1  UNL1       -0.2864
      8 C         140.2802  141.8756  168.6806 C.ar    1  UNL1        0.0701
      9 C         140.6765  142.9076  167.6666 C.ar    1  UNL1        0.0801
     10 N         140.5107  142.6234  166.2032 N.ar    1  UNL1       -0.3270
     11 C         139.9488  141.3073  165.7536 C.ar    1  UNL1        0.0750
     12 C         139.7830  141.0232  164.2902 C.ar    1  UNL1        0.0890
     13 CL        140.1793  142.0551  163.2762 Cl      1  UNL1       -0.0794
     14 C         138.3172  139.5567  160.0689 C.3     1  UNL1        0.0930
     15 C         139.2834  138.4148  160.1811 C.3     1  UNL1        0.0427
     16 C         139.7395  138.3321  161.6077 C.3     1  UNL1        0.0927
     17 N         139.0553  139.4229  162.3771 N.pl3   1  UNL1       -0.3033
     18 C         138.1762  140.1798  161.4260 C.3     1  UNL1        0.1104
     19 O         139.1337  142.1034  158.7095 O.2     1  UNL1       -0.2729
     20 C         138.0234  141.2714  158.1392 C.2     1  UNL1        0.2493
     21 N         137.6152  139.9981  158.8189 N.am    1  UNL1       -0.3025
     22 H         136.8865  139.4520  158.4446 H       1  UNL1        0.1495
     23 C         137.3214  141.7128  156.8892 C.3     1  UNL1        0.2355
     24 N         136.3835  140.7772  156.1856 N.ar    1  UNL1       -0.1413
     25 N         136.5111  140.3010  154.7690 N.ar    1  UNL1       -0.1259
     26 C         135.3597  139.3832  154.4831 C.ar    1  UNL1        0.2448
     27 N         134.5205  139.2921  155.7229 N.ar    1  UNL1       -0.1044
     28 N         135.1532  140.1537  156.7752 N.ar    1  UNL1       -0.0445
     29 C         140.4459  142.1598  170.1441 C.2     1  UNL1        0.0774
     30 O         139.2973  142.7109  170.9359 O.co2   1  UNL1       -0.5444
     31 O         141.7603  141.8928  170.8158 O.co2   1  UNL1       -0.5444
     32 C         140.9070  143.6553  165.1893 C.3     1  UNL1        0.0857
     33 C         141.9530  144.2874  164.3196 C.3     1  UNL1        0.0245
     34 C         140.5474  144.8106  164.3028 C.3     1  UNL1        0.0245
@<TRIPOS>UNITY_ATOM_ATTR
30 1
charge -1
@<TRIPOS>BOND
     1    19    20    2
     2    20    23    1
     3    23    24    1
     4    24    25   ar
     5    25    26   ar
     6    26    27   ar
     7    27    28   ar
     8    20    21   am
     9    21    14    1
    10    14    15    1
    11    15    16    1
    12    16    17    1
    13    17     1    1
    14     1     2   ar
    15     2     3    1
    16     2     4   ar
    17     4     5   ar
    18     5     6   ar
    19     6     7    2
    20     6     8   ar
    21     8    29    1
    22    29    30   ar
    23    29    31   ar
    24     8     9   ar
    25     9    10   ar
    26    10    32    1
    27    32    33    1
    28    33    34    1
    29    10    11   ar
    30    11    12   ar
    31    12    13    1
    32    17    18    1
    33    28    24   ar
    34    18    14    1
    35    12     1   ar
    36    11     5   ar
    37    34    32    1
    38    21    22    1
@<TRIPOS>MOLECULE
*****
 34 38 0 0 0
SMALL
GASTEIGER

@<TRIPOS>ATOM
      1 C         142.1215  142.4778  163.8541 C.ar    1  UNL1        0.0878
      2 C         143.2248  143.2366  164.5301 C.ar    1  UNL1        0.1543
      3 F         144.0583  144.2060  163.7456 F       1  UNL1       -0.2028
      4 C         143.4945  143.0259  165.9904 C.ar    1  UNL1        0.0356
      5 C         142.6610  142.0564  166.7749 C.ar    1  UNL1        0.0580
      6 C         142.9308  141.8457  168.2354 C.ar    1  UNL1        0.1996
      7 O         144.0341  142.6045  168.9113 O.2     1  UNL1       -0.2864
      8 C         142.0972  140.8763  169.0198 C.ar    1  UNL1        0.0701
      9 C         140.9939  140.1175  168.3438 C.ar    1  UNL1        0.0801
     10 N         140.7241  140.3282  166.8834 N.ar    1  UNL1       -0.3270
     11 C         141.5577  141.2977  166.0989 C.ar    1  UNL1        0.0750
     12 C         141.2879  141.5084  164.6386 C.ar    1  UNL1        0.0890
     13 CL        140.1845  140.7496  163.9625 Cl      1  UNL1       -0.0794
     14 C         141.0077  143.6057  160.3111 C.3     1  UNL1        0.0930
     15 C         141.8652  142.4198  159.9816 C.3     1  UNL1        0.0427
     16 C         142.3867  141.8530  161.2687 C.3     1  UNL1        0.0927
     17 N         141.8516  142.6885  162.3936 N.pl3   1  UNL1       -0.3033
     18 C         140.9993  143.7717  161.8018 C.3     1  UNL1        0.1104
     19 O         142.5623  145.2697  158.3580 O.2     1  UNL1       -0.2729
     20 C         141.0626  145.3052  158.3467 C.2     1  UNL1        0.2493
     21 N         140.2854  144.4732  159.3232 N.am    1  UNL1       -0.3025
     22 H         139.3012  144.4964  159.3158 H       1  UNL1        0.1495
     23 C         140.3404  146.1727  157.3589 C.3     1  UNL1        0.2355
     24 N         139.2976  145.5774  156.4597 N.ar    1  UNL1       -0.1413
     25 N         138.9010  144.1319  156.4058 N.ar    1  UNL1       -0.1259
     26 C         137.8267  143.9844  155.3693 C.ar    1  UNL1        0.2448
     27 N         137.5595  145.3387  154.7828 N.ar    1  UNL1       -0.1044
     28 N         138.4685  146.3233  155.4566 N.ar    1  UNL1       -0.0445
     29 C         142.3670  140.6656  170.4802 C.2     1  UNL1        0.0774
     30 O         143.4444  139.7166  170.9146 O.co2   1  UNL1       -0.5444
     31 O         141.5594  141.4039  171.5063 O.co2   1  UNL1       -0.5444
     32 C         139.6208  139.5695  166.2075 C.3     1  UNL1        0.0857
     33 C         138.2007  139.4911  165.7308 C.3     1  UNL1        0.0245
     34 C         139.1298  138.3338  165.5134 C.3     1  UNL1        0.0245
@<TRIPOS>UNITY_ATOM_ATTR
30 1
charge -1
@<TRIPOS>BOND
     1    19    20    2
     2    20    23    1
     3    23    24    1
     4    24    25   ar
     5    25    26   ar
     6    26    27   ar
     7    27    28   ar
     8    20    21   am
     9    21    14    1
    10    14    15    1
    11    15    16    1
    12    16    17    1
    13    17     1    1
    14     1     2   ar
    15     2     3    1
    16     2     4   ar
    17     4     5   ar
    18     5     6   ar
    19     6     7    2
    20     6     8   ar
    21     8    29    1
    22    29    30   ar
    23    29    31   ar
    24     8     9   ar
    25     9    10   ar
    26    10    32    1
    27    32    33    1
    28    33    34    1
    29    10    11   ar
    30    11    12   ar
    31    12    13    1
    32    17    18    1
    33    28    24   ar
    34    18    14    1
    35    12     1   ar
    36    11     5   ar
    37    34    32    1
    38    21    22    1
@<TRIPOS>MOLECULE
*****
 34 38 0 0 0
SMALL
GASTEIGER

@<TRIPOS>ATOM
      1 C         140.8250  139.5956  164.2717 C.ar    1  UNL1        0.0878
      2 C         141.4850  138.6779  165.2578 C.ar    1  UNL1        0.1543
      3 F         141.9296  137.3110  164.8290 F       1  UNL1       -0.2028
      4 C         141.7002  139.1272  166.6726 C.ar    1  UNL1        0.0356
      5 C         141.2555  140.4941  167.1014 C.ar    1  UNL1        0.0580
      6 C         141.4708  140.9433  168.5163 C.ar    1  UNL1        0.1996
      7 O         142.1308  140.0256  169.5023 O.2     1  UNL1       -0.2864
      8 C         141.0262  142.3102  168.9451 C.ar    1  UNL1        0.0701
      9 C         140.3662  143.2278  167.9590 C.ar    1  UNL1        0.0801
     10 N         140.1509  142.7786  166.5441 N.ar    1  UNL1       -0.3270
     11 C         140.5956  141.4117  166.1153 C.ar    1  UNL1        0.0750
     12 C         140.3803  140.9625  164.7005 C.ar    1  UNL1        0.0890
     13 CL        139.7203  141.8801  163.7144 Cl      1  UNL1       -0.0794
     14 C         140.9737  138.6750  160.5039 C.3     1  UNL1        0.0930
     15 C         139.5832  138.2353  160.8551 C.3     1  UNL1        0.0427
     16 C         139.3583  138.5267  162.3092 C.3     1  UNL1        0.0927
     17 N         140.6097  139.1464  162.8568 N.pl3   1  UNL1       -0.3033
     18 C         141.6081  139.2380  161.7411 C.3     1  UNL1        0.1104
     19 O         140.9092  141.0137  158.6262 O.2     1  UNL1       -0.2729
     20 C         141.5846  139.7393  158.2140 C.2     1  UNL1        0.2493
     21 N         141.6168  138.5700  159.1529 N.am    1  UNL1       -0.3025
     22 H         142.0601  137.7336  158.8824 H       1  UNL1        0.1495
     23 C         142.2277  139.6343  156.8629 C.3     1  UNL1        0.2355
     24 N         142.9830  138.3944  156.4861 N.ar    1  UNL1       -0.1413
     25 N         142.5683  136.9843  156.7854 N.ar    1  UNL1       -0.1259
     26 C         143.6147  136.0652  156.2281 C.ar    1  UNL1        0.2448
     27 N         144.6760  136.9073  155.5845 N.ar    1  UNL1       -0.1044
     28 N         144.2857  138.3468  155.7440 N.ar    1  UNL1       -0.0445
     29 C         141.2414  142.7594  170.3599 C.2     1  UNL1        0.0774
     30 O         142.4658  143.5484  170.7182 O.co2   1  UNL1       -0.5444
     31 O         140.2323  142.4196  171.4165 O.co2   1  UNL1       -0.5444
     32 C         139.4909  143.6963  165.5581 C.3     1  UNL1        0.0857
     33 C         139.5922  144.7419  164.4874 C.3     1  UNL1        0.0245
     34 C         138.2467  144.2401  164.9209 C.3     1  UNL1        0.0245
@<TRIPOS>UNITY_ATOM_ATTR
30 1
charge -1
@<TRIPOS>BOND
     1    19    20    2
     2    20    23    1
     3    23    24    1
     4    24    25   ar
     5    25    26   ar
     6    26    27   ar
     7    27    28   ar
     8    20    21   am
     9    21    14    1
    10    14    15    1
    11    15    16    1
    12    16    17    1
    13    17     1    1
    14     1     2   ar
    15     2     3    1
    16     2     4   ar
    17     4     5   ar
    18     5     6   ar
    19     6     7    2
    20     6     8   ar
    21     8    29    1
    22    29    30   ar
    23    29    31   ar
    24     8     9   ar
    25     9    10   ar
    26    10    32    1
    27    32    33    1
    28    33    34    1
    29    10    11   ar
    30    11    12   ar
    31    12    13    1
    32    17    18    1
    33    28    24   ar
    34    18    14    1
    35    12     1   ar
    36    11     5   ar
    37    34    32    1
    38    21    22    1
@<TRIPOS>MOLECULE
*****
 34 38 0 0 0
SMALL
GASTEIGER

@<TRIPOS>ATOM
      1 C         140.2307  139.4349  164.4360 C.ar    1  UNL1        0.0878
      2 C         139.2249  138.7369  165.3028 C.ar    1  UNL1        0.1543
      3 F         138.3905  137.6259  164.7378 F       1  UNL1       -0.2028
      4 C         139.0537  139.1501  166.7345 C.ar    1  UNL1        0.0356
      5 C         139.8882  140.2611  167.2995 C.ar    1  UNL1        0.0580
      6 C         139.7169  140.6743  168.7313 C.ar    1  UNL1        0.1996
      7 O         138.7112  139.9763  169.5981 O.2     1  UNL1       -0.2864
      8 C         140.5514  141.7853  169.2963 C.ar    1  UNL1        0.0701
      9 C         141.5571  142.4833  168.4294 C.ar    1  UNL1        0.0801
     10 N         141.7284  142.0701  166.9977 N.ar    1  UNL1       -0.3270
     11 C         140.8939  140.9591  166.4327 C.ar    1  UNL1        0.0750
     12 C         141.0651  140.5459  165.0010 C.ar    1  UNL1        0.0890
     13 CL        142.0709  141.2439  164.1341 Cl      1  UNL1       -0.0794
     14 C         140.0776  138.8101  160.6082 C.3     1  UNL1        0.0930
     15 C         141.2533  137.9620  160.9935 C.3     1  UNL1        0.0427
     16 C         141.4538  138.0929  162.4743 C.3     1  UNL1        0.0927
     17 N         140.4020  139.0218  163.0042 N.pl3   1  UNL1       -0.3033
     18 C         139.5514  139.4651  161.8508 C.3     1  UNL1        0.1104
     19 O         140.7278  141.2681  159.0157 O.2     1  UNL1       -0.2729
     20 C         139.8502  140.2034  158.4271 C.2     1  UNL1        0.2493
     21 N         139.5251  138.9744  159.2234 N.am    1  UNL1       -0.3025
     22 H         138.9491  138.2757  158.8371 H       1  UNL1        0.1495
     23 C         139.2977  140.3677  157.0423 C.3     1  UNL1        0.2355
     24 N         138.8395  139.1660  156.2701 N.ar    1  UNL1       -0.1413
     25 N         137.8765  139.1716  155.1201 N.ar    1  UNL1       -0.1259
     26 C         137.7058  137.7569  154.6517 C.ar    1  UNL1        0.2448
     27 N         138.5633  136.8770  155.5121 N.ar    1  UNL1       -0.1044
     28 N         139.2640  137.7479  156.5124 N.ar    1  UNL1       -0.0445
     29 C         140.3801  142.1984  170.7280 C.2     1  UNL1        0.0774
     30 O         141.2341  141.5794  171.7946 O.co2   1  UNL1       -0.5444
     31 O         139.3548  143.2307  171.0933 O.co2   1  UNL1       -0.5444
     32 C         142.7341  142.7681  166.1309 C.3     1  UNL1        0.0857
     33 C         143.0502  143.7310  165.0251 C.3     1  UNL1        0.0245
     34 C         144.1599  143.0141  165.7354 C.3     1  UNL1        0.0245
@<TRIPOS>UNITY_ATOM_ATTR
30 1
charge -1
@<TRIPOS>BOND
     1    19    20    2
     2    20    23    1
     3    23    24    1
     4    24    25   ar
     5    25    26   ar
     6    26    27   ar
     7    27    28   ar
     8    20    21   am
     9    21    14    1
    10    14    15    1
    11    15    16    1
    12    16    17    1
    13    17     1    1
    14     1     2   ar
    15     2     3    1
    16     2     4   ar
    17     4     5   ar
    18     5     6   ar
    19     6     7    2
    20     6     8   ar
    21     8    29    1
    22    29    30   ar
    23    29    31   ar
    24     8     9   ar
    25     9    10   ar
    26    10    32    1
    27    32    33    1
    28    33    34    1
    29    10    11   ar
    30    11    12   ar
    31    12    13    1
    32    17    18    1
    33    28    24   ar
    34    18    14    1
    35    12     1   ar
    36    11     5   ar
    37    34    32    1
    38    21    22    1
@<TRIPOS>MOLECULE
*****
 34 38 0 0 0
SMALL
GASTEIGER

@<TRIPOS>ATOM
      1 C         139.8755  139.3026  164.2780 C.ar    1  UNL1        0.0878
      2 C         138.9968  138.5253  165.2127 C.ar    1  UNL1        0.1543
      3 F         138.2304  137.3384  164.7087 F       1  UNL1       -0.2028
      4 C         138.8845  138.9349  166.6512 C.ar    1  UNL1        0.0356
      5 C         139.6508  140.1218  167.1552 C.ar    1  UNL1        0.0580
      6 C         139.5384  140.5313  168.5938 C.ar    1  UNL1        0.1996
      7 O         138.6597  139.7540  169.5285 O.2     1  UNL1       -0.2864
      8 C         140.3048  141.7182  169.0978 C.ar    1  UNL1        0.0701
      9 C         141.1836  142.4956  168.1630 C.ar    1  UNL1        0.0801
     10 N         141.2959  142.0860  166.7245 N.ar    1  UNL1       -0.3270
     11 C         140.5295  140.8991  166.2205 C.ar    1  UNL1        0.0750
     12 C         140.6419  140.4895  164.7819 C.ar    1  UNL1        0.0890
     13 CL        141.5206  141.2668  163.8472 Cl      1  UNL1       -0.0794
     14 C         140.9060  138.3412  160.6614 C.3     1  UNL1        0.0930
     15 C         139.4159  138.1842  160.5897 C.3     1  UNL1        0.0427
     16 C         138.8485  138.5252  161.9357 C.3     1  UNL1        0.0927
     17 N         139.9879  138.8930  162.8393 N.pl3   1  UNL1       -0.3033
     18 C         141.2595  138.7792  162.0518 C.3     1  UNL1        0.1104
     19 O         141.2897  140.4289  158.5414 O.2     1  UNL1       -0.2729
     20 C         142.0646  139.1459  158.4797 C.2     1  UNL1        0.2493
     21 N         141.8727  138.1021  159.5397 N.am    1  UNL1       -0.3025
     22 H         142.3813  137.2601  159.4992 H       1  UNL1        0.1495
     23 C         143.0314  138.9068  157.3580 C.3     1  UNL1        0.2355
     24 N         143.1139  137.5544  156.7144 N.ar    1  UNL1       -0.1413
     25 N         144.2634  137.0320  155.9047 N.ar    1  UNL1       -0.1259
     26 C         143.9212  135.6417  155.4574 C.ar    1  UNL1        0.2448
     27 N         142.5603  135.3050  155.9905 N.ar    1  UNL1       -0.1044
     28 N         142.0613  136.4871  156.7674 N.ar    1  UNL1       -0.0445
     29 C         140.1924  142.1278  170.5364 C.2     1  UNL1        0.0774
     30 O         140.7711  141.2567  171.6116 O.co2   1  UNL1       -0.5444
     31 O         139.5014  143.4087  170.8997 O.co2   1  UNL1       -0.5444
     32 C         142.1746  142.8633  165.7898 C.3     1  UNL1        0.0857
     33 C         142.3286  143.8465  164.6675 C.3     1  UNL1        0.0245
     34 C         143.5426  143.2264  165.2932 C.3     1  UNL1        0.0245
@<TRIPOS>UNITY_ATOM_ATTR
30 1
charge -1
@<TRIPOS>BOND
     1    19    20    2
     2    20    23    1
     3    23    24    1
     4    24    25   ar
     5    25    26   ar
     6    26    27   ar
     7    27    28   ar
     8    20    21   am
     9    21    14    1
    10    14    15    1
    11    15    16    1
    12    16    17    1
    13    17     1    1
    14     1     2   ar
    15     2     3    1
    16     2     4   ar
    17     4     5   ar
    18     5     6   ar
    19     6     7    2
    20     6     8   ar
    21     8    29    1
    22    29    30   ar
    23    29    31   ar
    24     8     9   ar
    25     9    10   ar
    26    10    32    1
    27    32    33    1
    28    33    34    1
    29    10    11   ar
    30    11    12   ar
    31    12    13    1
    32    17    18    1
    33    28    24   ar
    34    18    14    1
    35    12     1   ar
    36    11     5   ar
    37    34    32    1
    38    21    22    1
@<TRIPOS>MOLECULE
*****
 34 38 0 0 0
SMALL
GASTEIGER

@<TRIPOS>ATOM
      1 C         142.6570  141.6736  164.2732 C.ar    1  UNL1        0.0878
      2 C         143.7172  142.3978  165.0488 C.ar    1  UNL1        0.1543
      3 F         144.9146  142.9576  164.3398 F       1  UNL1       -0.2028
      4 C         143.5799  142.5621  166.5334 C.ar    1  UNL1        0.0356
      5 C         142.3824  142.0022  167.2424 C.ar    1  UNL1        0.0580
      6 C         142.2452  142.1666  168.7271 C.ar    1  UNL1        0.1996
      7 O         143.3053  142.8907  169.5027 O.2     1  UNL1       -0.2864
      8 C         141.0477  141.6067  169.4361 C.ar    1  UNL1        0.0701
      9 C         139.9876  140.8825  168.6604 C.ar    1  UNL1        0.0801
     10 N         140.1249  140.7181  167.1758 N.ar    1  UNL1       -0.3270
     11 C         141.3223  141.2780  166.4668 C.ar    1  UNL1        0.0750
     12 C         141.4596  141.1137  164.9822 C.ar    1  UNL1        0.0890
     13 CL        140.3994  140.3895  164.2065 Cl      1  UNL1       -0.0794
     14 C         143.0278  140.5113  160.5884 C.3     1  UNL1        0.0930
     15 C         142.9833  142.0012  160.4194 C.3     1  UNL1        0.0427
     16 C         142.8390  142.6178  161.7791 C.3     1  UNL1        0.0927
     17 N         142.7943  141.5092  162.7885 N.pl3   1  UNL1       -0.3033
     18 C         142.9110  140.2073  162.0526 C.3     1  UNL1        0.1104
     19 O         140.6417  138.9227  159.7035 O.2     1  UNL1       -0.2729
     20 C         141.9720  138.7083  159.0442 C.2     1  UNL1        0.2493
     21 N         143.1650  139.5027  159.4867 N.am    1  UNL1       -0.3025
     22 H         144.0381  139.3620  159.0540 H       1  UNL1        0.1495
     23 C         142.1092  137.6997  157.9425 C.3     1  UNL1        0.2355
     24 N         143.2018  137.8444  156.9250 N.ar    1  UNL1       -0.1413
     25 N         143.7991  139.1358  156.4503 N.ar    1  UNL1       -0.1259
     26 C         144.8553  138.8126  155.4354 C.ar    1  UNL1        0.2448
     27 N         144.9108  137.3214  155.2829 N.ar    1  UNL1       -0.1044
     28 N         143.8888  136.7230  156.2035 N.ar    1  UNL1       -0.0445
     29 C         140.9104  141.7710  170.9207 C.2     1  UNL1        0.0774
     30 O         139.8662  142.6911  171.4801 O.co2   1  UNL1       -0.5444
     31 O         141.8174  141.0152  171.8460 O.co2   1  UNL1       -0.5444
     32 C         139.0647  139.9940  166.4002 C.3     1  UNL1        0.0857
     33 C         138.2675  138.7506  166.1387 C.3     1  UNL1        0.0245
     34 C         138.0257  139.9829  165.3184 C.3     1  UNL1        0.0245
@<TRIPOS>UNITY_ATOM_ATTR
30 1
charge -1
@<TRIPOS>BOND
     1    19    20    2
     2    20    23    1
     3    23    24    1
     4    24    25   ar
     5    25    26   ar
     6    26    27   ar
     7    27    28   ar
     8    20    21   am
     9    21    14    1
    10    14    15    1
    11    15    16    1
    12    16    17    1
    13    17     1    1
    14     1     2   ar
    15     2     3    1
    16     2     4   ar
    17     4     5   ar
    18     5     6   ar
    19     6     7    2
    20     6     8   ar
    21     8    29    1
    22    29    30   ar
    23    29    31   ar
    24     8     9   ar
    25     9    10   ar
    26    10    32    1
    27    32    33    1
    28    33    34    1
    29    10    11   ar
    30    11    12   ar
    31    12    13    1
    32    17    18    1
    33    28    24   ar
    34    18    14    1
    35    12     1   ar
    36    11     5   ar
    37    34    32    1
    38    21    22    1
@<TRIPOS>MOLECULE
*****
 34 38 0 0 0
SMALL
GASTEIGER

@<TRIPOS>ATOM
      1 C         142.7485  139.6689  163.4658 C.ar    1  UNL1        0.0878
      2 C         143.8011  139.1851  164.4185 C.ar    1  UNL1        0.1543
      3 F         145.1027  138.6564  163.8928 F       1  UNL1       -0.2028
      4 C         143.5522  139.2300  165.8970 C.ar    1  UNL1        0.0356
      5 C         142.2507  139.7587  166.4228 C.ar    1  UNL1        0.0580
      6 C         142.0018  139.8036  167.9013 C.ar    1  UNL1        0.1996
      7 O         143.0545  139.3198  168.8541 O.2     1  UNL1       -0.2864
      8 C         140.7002  140.3323  168.4271 C.ar    1  UNL1        0.0701
      9 C         139.6476  140.8162  167.4742 C.ar    1  UNL1        0.0801
     10 N         139.8965  140.7713  165.9957 N.ar    1  UNL1       -0.3270
     11 C         141.1980  140.2425  165.4700 C.ar    1  UNL1        0.0750
     12 C         141.4469  140.1977  163.9915 C.ar    1  UNL1        0.0890
     13 CL        140.3942  140.6815  163.0387 Cl      1  UNL1       -0.0794
     14 C         143.1445  138.8432  159.6939 C.3     1  UNL1        0.0930
     15 C         143.6161  140.2667  159.7301 C.3     1  UNL1        0.0427
     16 C         143.5252  140.7493  161.1474 C.3     1  UNL1        0.0927
     17 N         142.9974  139.6241  161.9872 N.pl3   1  UNL1       -0.3033
     18 C         142.7621  138.4460  161.0889 C.3     1  UNL1        0.1104
     19 O         140.5925  138.6747  158.1257 O.2     1  UNL1       -0.2729
     20 C         141.7927  137.8859  157.6923 C.2     1  UNL1        0.2493
     21 N         143.0686  137.9702  158.4765 N.am    1  UNL1       -0.3025
     22 H         143.8563  137.4525  158.1921 H       1  UNL1        0.1495
     23 C         141.7168  137.0129  156.4750 C.3     1  UNL1        0.2355
     24 N         142.1856  135.5896  156.5423 N.ar    1  UNL1       -0.1413
     25 N         143.2533  135.0550  157.4501 N.ar    1  UNL1       -0.1259
     26 C         143.3965  133.5860  157.1824 C.ar    1  UNL1        0.2448
     27 N         142.4174  133.2128  156.1093 N.ar    1  UNL1       -0.1044
     28 N         141.6689  134.4510  155.7136 N.ar    1  UNL1       -0.0445
     29 C         140.4513  140.3772  169.9056 C.2     1  UNL1        0.0774
     30 O         139.4069  139.4914  170.5175 O.co2   1  UNL1       -0.5444
     31 O         141.2469  141.3079  170.7722 O.co2   1  UNL1       -0.5444
     32 C         138.8438  141.2551  165.0430 C.3     1  UNL1        0.0857
     33 C         137.7403  140.9644  164.0694 C.3     1  UNL1        0.0245
     34 C         138.1240  142.3837  164.3663 C.3     1  UNL1        0.0245
@<TRIPOS>UNITY_ATOM_ATTR
30 1
charge -1
@<TRIPOS>BOND
     1    19    20    2
     2    20    23    1
     3    23    24    1
     4    24    25   ar
     5    25    26   ar
     6    26    27   ar
     7    27    28   ar
     8    20    21   am
     9    21    14    1
    10    14    15    1
    11    15    16    1
    12    16    17    1
    13    17     1    1
    14     1     2   ar
    15     2     3    1
    16     2     4   ar
    17     4     5   ar
    18     5     6   ar
    19     6     7    2
    20     6     8   ar
    21     8    29    1
    22    29    30   ar
    23    29    31   ar
    24     8     9   ar
    25     9    10   ar
    26    10    32    1
    27    32    33    1
    28    33    34    1
    29    10    11   ar
    30    11    12   ar
    31    12    13    1
    32    17    18    1
    33    28    24   ar
    34    18    14    1
    35    12     1   ar
    36    11     5   ar
    37    34    32    1
    38    21    22    1
