@<TRIPOS>MOLECULE
*****
 32 35 0 0 0
SMALL
GASTEIGER

@<TRIPOS>ATOM
      1 N         140.4797  145.8049  161.1261 N.pl3   1  UNL1       -0.2824
      2 H         140.3683  146.7797  161.0456 H       1  UNL1        0.1551
      3 C         144.1155  142.1596  159.7418 C.ar    1  UNL1        0.1517
      4 N         144.6262  141.8042  158.3769 N.ar    1  UNL1       -0.2260
      5 C         143.9251  142.6765  157.3782 C.ar    1  UNL1        0.1248
      6 C         144.1317  142.6576  155.8926 C.3     1  UNL1        0.0722
      7 N         142.9811  143.5709  158.1257 N.ar    1  UNL1       -0.2920
      8 C         142.0297  144.6350  157.6650 C.ar    1  UNL1        0.0824
      9 C         141.1959  145.3797  158.6651 C.ar    1  UNL1        0.0337
     10 C         141.3136  145.0602  160.1259 C.ar    1  UNL1        0.0535
     11 C         142.2650  143.9961  160.5867 C.ar    1  UNL1        0.0339
     12 C         143.0988  143.2515  159.5866 C.ar    1  UNL1        0.0884
     13 C         145.7290  141.7179  163.3407 C.3     1  UNL1        0.1110
     14 N         145.2986  142.3444  162.0476 N.am    1  UNL1       -0.2979
     15 C         144.5460  141.5330  161.0350 C.2     1  UNL1        0.2651
     16 O         144.2238  140.0952  161.3156 O.2     1  UNL1       -0.2684
     17 H         145.5101  143.2882  161.8634 H       1  UNL1        0.1498
     18 C         139.8156  145.0643  162.2488 C.ar    1  UNL1        0.2221
     19 N         138.3217  144.9334  162.2808 N.ar    1  UNL1       -0.2119
     20 C         137.6576  144.1927  163.4036 C.ar    1  UNL1        0.1050
     21 C         138.4875  143.5830  164.4942 C.ar    1  UNL1        0.0596
     22 C         139.9815  143.7139  164.4621 C.ar    1  UNL1        0.1682
     23 N         140.6455  144.4545  163.3395 N.ar    1  UNL1       -0.1944
     24 N         140.8113  143.1041  165.5527 N.ar    1  UNL1       -0.2108
     25 C         140.3800  142.8885  166.9731 C.ar    1  UNL1        0.1007
     26 C         141.5203  142.2541  167.7127 C.ar    1  UNL1        0.0340
     27 C         142.6565  142.0776  166.7494 C.ar    1  UNL1        0.1192
     28 N         142.2183  142.6029  165.4145 N.ar    1  UNL1       -0.1624
     29 C         141.5239  141.8646  169.1612 C.3     1  UNL1        0.1024
     30 N         140.2277  141.7200  169.9022 N.3     1  UNL1       -0.2664
     31 C         139.7120  142.8528  170.7394 C.3     1  UNL1        0.0899
     32 C         139.4473  140.4426  169.8061 C.3     1  UNL1        0.0899
@<TRIPOS>BOND
     1    13    14    1
     2    14    15   am
     3    15    16    2
     4    15     3    1
     5     3     4   ar
     6     4     5   ar
     7     5     6    1
     8     5     7   ar
     9     7     8   ar
    10     8     9   ar
    11     9    10   ar
    12    10     1    1
    13     1    18    1
    14    18    19   ar
    15    19    20   ar
    16    20    21   ar
    17    21    22   ar
    18    22    24    1
    19    24    25   ar
    20    25    26   ar
    21    26    29    1
    22    29    30    1
    23    30    31    1
    24    30    32    1
    25    26    27   ar
    26    27    28   ar
    27    22    23   ar
    28    10    11   ar
    29    11    12   ar
    30    12     3   ar
    31    12     7   ar
    32    23    18   ar
    33    28    24   ar
    34    14    17    1
    35     1     2    1
@<TRIPOS>MOLECULE
*****
 32 35 0 0 0
SMALL
GASTEIGER

@<TRIPOS>ATOM
      1 N         142.0726  139.7591  162.1093 N.pl3   1  UNL1       -0.2824
      2 H         142.9239  139.2830  161.9759 H       1  UNL1        0.1551
      3 C         139.7948  144.5630  161.7111 C.ar    1  UNL1        0.1517
      4 N         139.9608  145.6026  160.6427 N.ar    1  UNL1       -0.2260
      5 C         140.9255  145.0709  159.6245 C.ar    1  UNL1        0.1248
      6 C         141.3802  145.7824  158.3848 C.3     1  UNL1        0.0722
      7 N         141.3557  143.7026  160.0637 N.ar    1  UNL1       -0.2920
      8 C         142.2934  142.7021  159.4559 C.ar    1  UNL1        0.0824
      9 C         142.5324  141.3876  160.1378 C.ar    1  UNL1        0.0337
     10 C         141.8336  141.0737  161.4274 C.ar    1  UNL1        0.0535
     11 C         140.8958  142.0743  162.0352 C.ar    1  UNL1        0.0339
     12 C         140.6569  143.3887  161.3533 C.ar    1  UNL1        0.0884
     13 C         138.6585  145.0510  165.4822 C.3     1  UNL1        0.1110
     14 N         139.5330  144.9365  164.2689 N.am    1  UNL1       -0.2979
     15 C         138.9203  144.6775  162.9244 C.2     1  UNL1        0.2651
     16 O         137.4331  144.5329  162.7934 O.2     1  UNL1       -0.2684
     17 H         140.5092  145.0314  164.3550 H       1  UNL1        0.1498
     18 C         141.0145  139.1700  162.9944 C.ar    1  UNL1        0.2221
     19 N         140.0687  138.1409  162.4499 N.ar    1  UNL1       -0.2119
     20 C         139.0106  137.5519  163.3351 C.ar    1  UNL1        0.1050
     21 C         138.8983  137.9919  164.7647 C.ar    1  UNL1        0.0596
     22 C         139.8441  139.0210  165.3091 C.ar    1  UNL1        0.1682
     23 N         140.9022  139.6101  164.4240 N.ar    1  UNL1       -0.1944
     24 N         139.7318  139.4610  166.7387 N.ar    1  UNL1       -0.2108
     25 C         140.7895  140.1751  167.5271 C.ar    1  UNL1        0.1007
     26 C         140.2535  140.4196  168.9066 C.ar    1  UNL1        0.0340
     27 C         138.8645  139.8567  168.9707 C.ar    1  UNL1        0.1192
     28 N         138.5422  139.2643  167.6309 N.ar    1  UNL1       -0.1624
     29 C         140.9790  141.1065  170.0254 C.3     1  UNL1        0.1024
     30 N         141.6701  142.4149  169.7796 N.3     1  UNL1       -0.2664
     31 C         143.1353  142.4406  169.4592 C.3     1  UNL1        0.0899
     32 C         140.8960  143.6976  169.8541 C.3     1  UNL1        0.0899
@<TRIPOS>BOND
     1    13    14    1
     2    14    15   am
     3    15    16    2
     4    15     3    1
     5     3     4   ar
     6     4     5   ar
     7     5     6    1
     8     5     7   ar
     9     7     8   ar
    10     8     9   ar
    11     9    10   ar
    12    10     1    1
    13     1    18    1
    14    18    19   ar
    15    19    20   ar
    16    20    21   ar
    17    21    22   ar
    18    22    24    1
    19    24    25   ar
    20    25    26   ar
    21    26    29    1
    22    29    30    1
    23    30    31    1
    24    30    32    1
    25    26    27   ar
    26    27    28   ar
    27    22    23   ar
    28    10    11   ar
    29    11    12   ar
    30    12     3   ar
    31    12     7   ar
    32    23    18   ar
    33    28    24   ar
    34    14    17    1
    35     1     2    1
@<TRIPOS>MOLECULE
*****
 32 35 0 0 0
SMALL
GASTEIGER

@<TRIPOS>ATOM
      1 N         142.3380  137.3664  161.4243 N.pl3   1  UNL1       -0.2824
      2 H         142.7082  136.4569  161.3529 H       1  UNL1        0.1551
      3 C         144.1688  142.2163  160.1795 C.ar    1  UNL1        0.1517
      4 N         144.4327  142.8091  158.8271 N.ar    1  UNL1       -0.2260
      5 C         144.0870  141.7783  157.7937 C.ar    1  UNL1        0.1248
      6 C         144.1991  141.9475  156.3075 C.3     1  UNL1        0.0722
      7 N         143.6094  140.5484  158.5074 N.ar    1  UNL1       -0.2920
      8 C         143.1350  139.2170  158.0052 C.ar    1  UNL1        0.0824
      9 C         142.7112  138.1564  158.9775 C.ar    1  UNL1        0.0337
     10 C         142.7618  138.4271  160.4520 C.ar    1  UNL1        0.0535
     11 C         143.2362  139.7585  160.9542 C.ar    1  UNL1        0.0339
     12 C         143.6600  140.8192  159.9819 C.ar    1  UNL1        0.0884
     13 C         143.8537  144.8575  163.1249 C.3     1  UNL1        0.1110
     14 N         143.6454  144.1732  161.8064 N.am    1  UNL1       -0.2979
     15 C         144.3771  142.9006  161.4979 C.2     1  UNL1        0.2651
     16 O         145.3171  142.3124  162.5080 O.2     1  UNL1       -0.2684
     17 H         143.0284  144.5594  161.1435 H       1  UNL1        0.1498
     18 C         141.3501  137.6913  162.5052 C.ar    1  UNL1        0.2221
     19 N         139.8832  137.4879  162.2666 N.ar    1  UNL1       -0.2119
     20 C         138.8953  137.8128  163.3476 C.ar    1  UNL1        0.1050
     21 C         139.3743  138.3411  164.6672 C.ar    1  UNL1        0.0596
     22 C         140.8412  138.5445  164.9058 C.ar    1  UNL1        0.1682
     23 N         141.8291  138.2196  163.8249 N.ar    1  UNL1       -0.1944
     24 N         141.3202  139.0729  166.2254 N.ar    1  UNL1       -0.2108
     25 C         140.5081  139.8687  167.2038 C.ar    1  UNL1        0.1007
     26 C         141.3814  140.1858  168.3814 C.ar    1  UNL1        0.0340
     27 C         142.7332  139.5859  168.1309 C.ar    1  UNL1        0.1192
     28 N         142.6954  138.8981  166.7984 N.ar    1  UNL1       -0.1624
     29 C         140.9744  140.9659  169.5963 C.3     1  UNL1        0.1024
     30 N         141.3606  142.4096  169.7248 N.3     1  UNL1       -0.2664
     31 C         140.3981  143.4831  169.3112 C.3     1  UNL1        0.0899
     32 C         142.7095  142.7797  170.2669 C.3     1  UNL1        0.0899
@<TRIPOS>BOND
     1    13    14    1
     2    14    15   am
     3    15    16    2
     4    15     3    1
     5     3     4   ar
     6     4     5   ar
     7     5     6    1
     8     5     7   ar
     9     7     8   ar
    10     8     9   ar
    11     9    10   ar
    12    10     1    1
    13     1    18    1
    14    18    19   ar
    15    19    20   ar
    16    20    21   ar
    17    21    22   ar
    18    22    24    1
    19    24    25   ar
    20    25    26   ar
    21    26    29    1
    22    29    30    1
    23    30    31    1
    24    30    32    1
    25    26    27   ar
    26    27    28   ar
    27    22    23   ar
    28    10    11   ar
    29    11    12   ar
    30    12     3   ar
    31    12     7   ar
    32    23    18   ar
    33    28    24   ar
    34    14    17    1
    35     1     2    1
@<TRIPOS>MOLECULE
*****
 32 35 0 0 0
SMALL
GASTEIGER

@<TRIPOS>ATOM
      1 N         137.7536  140.5678  160.7833 N.pl3   1  UNL1       -0.2824
      2 H         136.7969  140.4162  160.6070 H       1  UNL1        0.1551
      3 C         141.1464  144.6777  160.6367 C.ar    1  UNL1        0.1517
      4 N         141.5309  145.5455  159.4753 N.ar    1  UNL1       -0.2260
      5 C         140.7772  145.0673  158.2698 C.ar    1  UNL1        0.1248
      6 C         140.8593  145.6501  156.8901 C.3     1  UNL1        0.0722
      7 N         139.9268  143.9039  158.6863 N.ar    1  UNL1       -0.2920
      8 C         138.9742  143.0326  157.9224 C.ar    1  UNL1        0.0824
      9 C         138.2499  141.9206  158.6214 C.ar    1  UNL1        0.0337
     10 C         138.4780  141.6799  160.0843 C.ar    1  UNL1        0.0535
     11 C         139.4306  142.5511  160.8481 C.ar    1  UNL1        0.0339
     12 C         140.1550  143.6631  160.1491 C.ar    1  UNL1        0.0884
     13 C         143.6537  145.0402  163.6916 C.3     1  UNL1        0.1110
     14 N         143.1375  144.9154  162.2888 N.am    1  UNL1       -0.2979
     15 C         141.6626  144.8025  162.0396 C.2     1  UNL1        0.2651
     16 O         140.7041  144.8144  163.1932 O.2     1  UNL1       -0.2684
     17 H         143.7667  144.9076  161.5316 H       1  UNL1        0.1498
     18 C         138.4867  139.6867  161.7508 C.ar    1  UNL1        0.2221
     19 N         139.4394  138.6452  161.2432 N.ar    1  UNL1       -0.2119
     20 C         140.1725  137.7641  162.2109 C.ar    1  UNL1        0.1050
     21 C         139.9530  137.9245  163.6860 C.ar    1  UNL1        0.0596
     22 C         139.0003  138.9660  164.1936 C.ar    1  UNL1        0.1682
     23 N         138.2672  139.8471  163.2260 N.ar    1  UNL1       -0.1944
     24 N         138.7807  139.1264  165.6687 N.ar    1  UNL1       -0.2108
     25 C         139.6049  139.9693  166.5962 C.ar    1  UNL1        0.1007
     26 C         139.0320  139.8360  167.9761 C.ar    1  UNL1        0.0340
     27 C         137.8537  138.9107  167.9013 C.ar    1  UNL1        0.1192
     28 N         137.6984  138.4722  166.4752 N.ar    1  UNL1       -0.1624
     29 C         139.5470  140.5096  169.2134 C.3     1  UNL1        0.1024
     30 N         141.0241  140.6644  169.4236 N.3     1  UNL1       -0.2664
     31 C         141.8752  139.4571  169.6845 C.3     1  UNL1        0.0899
     32 C         141.6502  142.0266  169.3729 C.3     1  UNL1        0.0899
@<TRIPOS>BOND
     1    13    14    1
     2    14    15   am
     3    15    16    2
     4    15     3    1
     5     3     4   ar
     6     4     5   ar
     7     5     6    1
     8     5     7   ar
     9     7     8   ar
    10     8     9   ar
    11     9    10   ar
    12    10     1    1
    13     1    18    1
    14    18    19   ar
    15    19    20   ar
    16    20    21   ar
    17    21    22   ar
    18    22    24    1
    19    24    25   ar
    20    25    26   ar
    21    26    29    1
    22    29    30    1
    23    30    31    1
    24    30    32    1
    25    26    27   ar
    26    27    28   ar
    27    22    23   ar
    28    10    11   ar
    29    11    12   ar
    30    12     3   ar
    31    12     7   ar
    32    23    18   ar
    33    28    24   ar
    34    14    17    1
    35     1     2    1
@<TRIPOS>MOLECULE
*****
 32 35 0 0 0
SMALL
GASTEIGER

@<TRIPOS>ATOM
      1 N         138.1829  141.8715  160.3959 N.pl3   1  UNL1       -0.2824
      2 H         137.4275  142.1158  159.8139 H       1  UNL1        0.1551
      3 C         143.2490  140.2776  159.9283 C.ar    1  UNL1        0.1517
      4 N         143.8060  139.1057  159.1756 N.ar    1  UNL1       -0.2260
      5 C         142.6620  138.3879  158.5230 C.ar    1  UNL1        0.1248
      6 C         142.7640  137.1578  157.6706 C.3     1  UNL1        0.0722
      7 N         141.3980  139.1162  158.8722 N.ar    1  UNL1       -0.2920
      8 C         139.9635  138.8667  158.5116 C.ar    1  UNL1        0.0824
      9 C         138.8919  139.7851  159.0195 C.ar    1  UNL1        0.0337
     10 C         139.2547  140.9530  159.8880 C.ar    1  UNL1        0.0535
     11 C         140.6891  141.2025  160.2487 C.ar    1  UNL1        0.0339
     12 C         141.7608  140.2841  159.7408 C.ar    1  UNL1        0.0884
     13 C         145.3731  141.8778  162.8741 C.3     1  UNL1        0.1110
     14 N         144.5810  140.8864  162.0743 N.am    1  UNL1       -0.2979
     15 C         144.0411  141.2690  160.7281 C.2     1  UNL1        0.2651
     16 O         144.2935  142.6429  160.1817 O.2     1  UNL1       -0.2684
     17 H         144.4153  139.9847  162.4330 H       1  UNL1        0.1498
     18 C         138.2623  142.4177  161.7907 C.ar    1  UNL1        0.2221
     19 N         138.0930  143.8886  162.0309 N.ar    1  UNL1       -0.2119
     20 C         138.1723  144.4348  163.4257 C.ar    1  UNL1        0.1050
     21 C         138.4210  143.5101  164.5802 C.ar    1  UNL1        0.0596
     22 C         138.5904  142.0392  164.3400 C.ar    1  UNL1        0.1682
     23 N         138.5110  141.4930  162.9453 N.ar    1  UNL1       -0.1944
     24 N         138.8390  141.1145  165.4946 N.ar    1  UNL1       -0.2108
     25 C         139.7380  141.3863  166.6642 C.ar    1  UNL1        0.1007
     26 C         139.6870  140.1954  167.5747 C.ar    1  UNL1        0.0340
     27 C         138.7565  139.1874  166.9678 C.ar    1  UNL1        0.1192
     28 N         138.2325  139.7555  165.6822 N.ar    1  UNL1       -0.1624
     29 C         140.4350  140.0397  168.8655 C.3     1  UNL1        0.1024
     30 N         141.9230  139.8504  168.8519 N.3     1  UNL1       -0.2664
     31 C         142.6041  139.3500  167.6126 C.3     1  UNL1        0.0899
     32 C         142.7299  140.1614  170.0776 C.3     1  UNL1        0.0899
@<TRIPOS>BOND
     1    13    14    1
     2    14    15   am
     3    15    16    2
     4    15     3    1
     5     3     4   ar
     6     4     5   ar
     7     5     6    1
     8     5     7   ar
     9     7     8   ar
    10     8     9   ar
    11     9    10   ar
    12    10     1    1
    13     1    18    1
    14    18    19   ar
    15    19    20   ar
    16    20    21   ar
    17    21    22   ar
    18    22    24    1
    19    24    25   ar
    20    25    26   ar
    21    26    29    1
    22    29    30    1
    23    30    31    1
    24    30    32    1
    25    26    27   ar
    26    27    28   ar
    27    22    23   ar
    28    10    11   ar
    29    11    12   ar
    30    12     3   ar
    31    12     7   ar
    32    23    18   ar
    33    28    24   ar
    34    14    17    1
    35     1     2    1
@<TRIPOS>MOLECULE
*****
 32 35 0 0 0
SMALL
GASTEIGER

@<TRIPOS>ATOM
      1 N         141.6672  145.2856  160.2545 N.pl3   1  UNL1       -0.2824
      2 H         142.5096  145.7900  160.3261 H       1  UNL1        0.1551
      3 C         139.4010  146.3082  155.5383 C.ar    1  UNL1        0.1517
      4 N         139.0786  145.3628  154.4192 N.ar    1  UNL1       -0.2260
      5 C         139.5112  143.9880  154.8349 C.ar    1  UNL1        0.1248
      6 C         139.3775  142.7370  154.0180 C.3     1  UNL1        0.0722
      7 N         140.1009  144.0837  156.2108 N.ar    1  UNL1       -0.2920
      8 C         140.6910  143.0503  157.1239 C.ar    1  UNL1        0.0824
      9 C         141.2131  143.4509  158.4718 C.ar    1  UNL1        0.0337
     10 C         141.1451  144.8849  158.9065 C.ar    1  UNL1        0.0535
     11 C         140.5549  145.9183  157.9934 C.ar    1  UNL1        0.0339
     12 C         140.0328  145.5176  156.6455 C.ar    1  UNL1        0.0884
     13 C         138.2689  149.9072  156.7695 C.3     1  UNL1        0.1110
     14 N         138.5321  148.4305  156.7594 N.am    1  UNL1       -0.2979
     15 C         139.1379  147.7849  155.5484 C.2     1  UNL1        0.2651
     16 O         139.4804  148.6160  154.3477 O.2     1  UNL1       -0.2684
     17 H         138.3073  147.8850  157.5475 H       1  UNL1        0.1498
     18 C         140.9058  144.9177  161.4934 C.ar    1  UNL1        0.2221
     19 N         139.4308  145.1784  161.5724 N.ar    1  UNL1       -0.2119
     20 C         138.6694  144.8105  162.8113 C.ar    1  UNL1        0.1050
     21 C         139.3830  144.1818  163.9712 C.ar    1  UNL1        0.0596
     22 C         140.8580  143.9210  163.8922 C.ar    1  UNL1        0.1682
     23 N         141.6194  144.2889  162.6534 N.ar    1  UNL1       -0.1944
     24 N         141.5717  143.2923  165.0521 N.ar    1  UNL1       -0.2108
     25 C         140.9296  142.7605  166.2991 C.ar    1  UNL1        0.1007
     26 C         142.0138  142.2245  167.1864 C.ar    1  UNL1        0.0340
     27 C         143.3260  142.4252  166.4878 C.ar    1  UNL1        0.1192
     28 N         143.0527  143.0851  165.1687 N.ar    1  UNL1       -0.1624
     29 C         141.8199  141.5980  168.5354 C.3     1  UNL1        0.1024
     30 N         141.6282  142.4648  169.7444 N.3     1  UNL1       -0.2664
     31 C         142.8204  143.0175  170.4678 C.3     1  UNL1        0.0899
     32 C         140.2441  142.7791  170.2301 C.3     1  UNL1        0.0899
@<TRIPOS>BOND
     1    13    14    1
     2    14    15   am
     3    15    16    2
     4    15     3    1
     5     3     4   ar
     6     4     5   ar
     7     5     6    1
     8     5     7   ar
     9     7     8   ar
    10     8     9   ar
    11     9    10   ar
    12    10     1    1
    13     1    18    1
    14    18    19   ar
    15    19    20   ar
    16    20    21   ar
    17    21    22   ar
    18    22    24    1
    19    24    25   ar
    20    25    26   ar
    21    26    29    1
    22    29    30    1
    23    30    31    1
    24    30    32    1
    25    26    27   ar
    26    27    28   ar
    27    22    23   ar
    28    10    11   ar
    29    11    12   ar
    30    12     3   ar
    31    12     7   ar
    32    23    18   ar
    33    28    24   ar
    34    14    17    1
    35     1     2    1
@<TRIPOS>MOLECULE
*****
 32 35 0 0 0
SMALL
GASTEIGER

@<TRIPOS>ATOM
      1 N         143.7176  144.1547  163.4084 N.pl3   1  UNL1       -0.2824
      2 H         144.5595  144.6634  163.3671 H       1  UNL1        0.1551
      3 C         142.7416  141.3724  167.8502 C.ar    1  UNL1        0.1517
      4 N         142.8677  139.8969  168.0887 N.ar    1  UNL1       -0.2260
      5 C         143.3406  139.2604  166.8154 C.ar    1  UNL1        0.1248
      6 C         143.6015  137.7984  166.6045 C.3     1  UNL1        0.0722
      7 N         143.5067  140.3425  165.7900 N.ar    1  UNL1       -0.2920
      8 C         143.9472  140.3079  164.3566 C.ar    1  UNL1        0.0824
      9 C         144.0175  141.5786  163.5628 C.ar    1  UNL1        0.0337
     10 C         143.6473  142.8839  164.2023 C.ar    1  UNL1        0.0535
     11 C         143.2068  142.9186  165.6357 C.ar    1  UNL1        0.0339
     12 C         143.1365  141.6478  166.4296 C.ar    1  UNL1        0.0884
     13 C         140.4291  143.8791  169.8798 C.3     1  UNL1        0.1110
     14 N         140.8723  142.8582  168.8742 N.am    1  UNL1       -0.2979
     15 C         142.2984  142.3934  168.8558 C.2     1  UNL1        0.2651
     16 O         143.2812  142.9495  169.8431 O.2     1  UNL1       -0.2684
     17 H         140.2272  142.4932  168.2262 H       1  UNL1        0.1498
     18 C         142.5053  144.6504  162.6773 C.ar    1  UNL1        0.2221
     19 N         141.3267  145.1705  163.4456 N.ar    1  UNL1       -0.2119
     20 C         140.1143  145.6662  162.7144 C.ar    1  UNL1        0.1050
     21 C         140.0806  145.6417  161.2150 C.ar    1  UNL1        0.0596
     22 C         141.2592  145.1215  160.4467 C.ar    1  UNL1        0.1682
     23 N         142.4716  144.6259  161.1778 N.ar    1  UNL1       -0.1944
     24 N         141.2255  145.0970  158.9473 N.ar    1  UNL1       -0.2108
     25 C         140.2059  144.3957  158.0997 C.ar    1  UNL1        0.1007
     26 C         140.5557  144.6347  156.6608 C.ar    1  UNL1        0.0340
     27 C         141.7916  145.4838  156.6191 C.ar    1  UNL1        0.1192
     28 N         142.2055  145.7695  158.0323 N.ar    1  UNL1       -0.1624
     29 C         139.8021  144.1158  155.4722 C.3     1  UNL1        0.1024
     30 N         138.3190  144.3197  155.3770 N.3     1  UNL1       -0.2664
     31 C         137.7715  145.6320  154.8995 C.3     1  UNL1        0.0899
     32 C         137.3835  143.2112  155.7595 C.3     1  UNL1        0.0899
@<TRIPOS>BOND
     1    13    14    1
     2    14    15   am
     3    15    16    2
     4    15     3    1
     5     3     4   ar
     6     4     5   ar
     7     5     6    1
     8     5     7   ar
     9     7     8   ar
    10     8     9   ar
    11     9    10   ar
    12    10     1    1
    13     1    18    1
    14    18    19   ar
    15    19    20   ar
    16    20    21   ar
    17    21    22   ar
    18    22    24    1
    19    24    25   ar
    20    25    26   ar
    21    26    29    1
    22    29    30    1
    23    30    31    1
    24    30    32    1
    25    26    27   ar
    26    27    28   ar
    27    22    23   ar
    28    10    11   ar
    29    11    12   ar
    30    12     3   ar
    31    12     7   ar
    32    23    18   ar
    33    28    24   ar
    34    14    17    1
    35     1     2    1
@<TRIPOS>MOLECULE
*****
 32 35 0 0 0
SMALL
GASTEIGER

@<TRIPOS>ATOM
      1 N         139.5861  143.8665  165.8959 N.pl3   1  UNL1       -0.2824
      2 H         139.4076  144.7793  166.2188 H       1  UNL1        0.1551
      3 C         142.5493  139.5101  166.7111 C.ar    1  UNL1        0.1517
      4 N         143.0584  138.9407  168.0020 N.ar    1  UNL1       -0.2260
      5 C         142.5875  139.8266  169.1170 C.ar    1  UNL1        0.1248
      6 C         142.8675  139.6301  170.5775 C.3     1  UNL1        0.0722
      7 N         141.7873  140.9436  168.5152 N.ar    1  UNL1       -0.2920
      8 C         141.0772  142.1135  169.1291 C.ar    1  UNL1        0.0824
      9 C         140.3435  143.0878  168.2560 C.ar    1  UNL1        0.0337
     10 C         140.3199  142.8922  166.7690 C.ar    1  UNL1        0.0535
     11 C         141.0300  141.7222  166.1551 C.ar    1  UNL1        0.0339
     12 C         141.7638  140.7480  167.0282 C.ar    1  UNL1        0.0884
     13 C         144.0370  138.9986  163.0675 C.3     1  UNL1        0.1110
     14 N         143.8019  139.5672  164.4355 N.am    1  UNL1       -0.2979
     15 C         142.7845  138.9415  165.3431 C.2     1  UNL1        0.2651
     16 O         142.0025  137.7473  164.8826 O.2     1  UNL1       -0.2684
     17 H         144.3152  140.3511  164.7377 H       1  UNL1        0.1498
     18 C         139.1244  143.4502  164.5308 C.ar    1  UNL1        0.2221
     19 N         137.9467  142.5328  164.3848 N.ar    1  UNL1       -0.2119
     20 C         137.4850  142.1165  163.0196 C.ar    1  UNL1        0.1050
     21 C         138.2010  142.6177  161.8006 C.ar    1  UNL1        0.0596
     22 C         139.3787  143.5351  161.9466 C.ar    1  UNL1        0.1682
     23 N         139.8404  143.9514  163.3117 N.ar    1  UNL1       -0.1944
     24 N         140.0947  144.0362  160.7275 N.ar    1  UNL1       -0.2108
     25 C         141.1409  143.2925  159.9513 C.ar    1  UNL1        0.1007
     26 C         141.5830  144.1657  158.8147 C.ar    1  UNL1        0.0340
     27 C         140.8101  145.4492  158.8884 C.ar    1  UNL1        0.1192
     28 N         139.8903  145.3691  160.0706 N.ar    1  UNL1       -0.1624
     29 C         142.6165  143.8168  157.7851 C.3     1  UNL1        0.1024
     30 N         143.3862  142.5344  157.8997 N.3     1  UNL1       -0.2664
     31 C         142.8882  141.2969  157.2136 C.3     1  UNL1        0.0899
     32 C         144.6539  142.4894  158.7004 C.3     1  UNL1        0.0899
@<TRIPOS>BOND
     1    13    14    1
     2    14    15   am
     3    15    16    2
     4    15     3    1
     5     3     4   ar
     6     4     5   ar
     7     5     6    1
     8     5     7   ar
     9     7     8   ar
    10     8     9   ar
    11     9    10   ar
    12    10     1    1
    13     1    18    1
    14    18    19   ar
    15    19    20   ar
    16    20    21   ar
    17    21    22   ar
    18    22    24    1
    19    24    25   ar
    20    25    26   ar
    21    26    29    1
    22    29    30    1
    23    30    31    1
    24    30    32    1
    25    26    27   ar
    26    27    28   ar
    27    22    23   ar
    28    10    11   ar
    29    11    12   ar
    30    12     3   ar
    31    12     7   ar
    32    23    18   ar
    33    28    24   ar
    34    14    17    1
    35     1     2    1
@<TRIPOS>MOLECULE
*****
 32 35 0 0 0
SMALL
GASTEIGER

@<TRIPOS>ATOM
      1 N         139.6432  143.8569  165.7362 N.pl3   1  UNL1       -0.2824
      2 H         139.5152  144.7884  166.0282 H       1  UNL1        0.1551
      3 C         142.5525  139.4794  166.6293 C.ar    1  UNL1        0.1517
      4 N         143.0364  138.9151  167.9321 N.ar    1  UNL1       -0.2260
      5 C         142.5568  139.8139  169.0331 C.ar    1  UNL1        0.1248
      6 C         142.8126  139.6259  170.4991 C.3     1  UNL1        0.0722
      7 N         141.7765  140.9336  168.4107 N.ar    1  UNL1       -0.2920
      8 C         141.0681  142.1147  169.0049 C.ar    1  UNL1        0.0824
      9 C         140.3570  143.0891  168.1134 C.ar    1  UNL1        0.0337
     10 C         140.3544  142.8824  166.6277 C.ar    1  UNL1        0.0535
     11 C         141.0628  141.7013  166.0335 C.ar    1  UNL1        0.0339
     12 C         141.7739  140.7269  166.9251 C.ar    1  UNL1        0.0884
     13 C         144.0682  138.9457  163.0005 C.3     1  UNL1        0.1110
     14 N         143.8175  139.5269  164.3604 N.am    1  UNL1       -0.2979
     15 C         142.8032  138.8982  165.2693 C.2     1  UNL1        0.2651
     16 O         142.0397  137.6886  164.8182 O.2     1  UNL1       -0.2684
     17 H         144.3187  140.3209  164.6564 H       1  UNL1        0.1498
     18 C         139.1272  143.4122  164.3998 C.ar    1  UNL1        0.2221
     19 N         137.9910  142.4359  164.3216 N.ar    1  UNL1       -0.2119
     20 C         137.4749  141.9912  162.9852 C.ar    1  UNL1        0.1050
     21 C         138.0950  142.5228  161.7271 C.ar    1  UNL1        0.0596
     22 C         139.2311  143.4990  161.8053 C.ar    1  UNL1        0.1682
     23 N         139.7472  143.9437  163.1416 N.ar    1  UNL1       -0.1944
     24 N         139.8512  144.0306  160.5471 N.ar    1  UNL1       -0.2108
     25 C         139.4878  143.6305  159.1479 C.ar    1  UNL1        0.1007
     26 C         140.3555  144.4082  158.2033 C.ar    1  UNL1        0.0340
     27 C         141.2552  145.2889  159.0188 C.ar    1  UNL1        0.1192
     28 N         140.9435  145.0555  160.4674 N.ar    1  UNL1       -0.1624
     29 C         140.3284  144.3206  156.7061 C.3     1  UNL1        0.1024
     30 N         139.4296  145.2267  155.9180 N.3     1  UNL1       -0.2664
     31 C         139.8011  146.6667  155.7224 C.3     1  UNL1        0.0899
     32 C         138.1592  144.6927  155.3254 C.3     1  UNL1        0.0899
@<TRIPOS>BOND
     1    13    14    1
     2    14    15   am
     3    15    16    2
     4    15     3    1
     5     3     4   ar
     6     4     5   ar
     7     5     6    1
     8     5     7   ar
     9     7     8   ar
    10     8     9   ar
    11     9    10   ar
    12    10     1    1
    13     1    18    1
    14    18    19   ar
    15    19    20   ar
    16    20    21   ar
    17    21    22   ar
    18    22    24    1
    19    24    25   ar
    20    25    26   ar
    21    26    29    1
    22    29    30    1
    23    30    31    1
    24    30    32    1
    25    26    27   ar
    26    27    28   ar
    27    22    23   ar
    28    10    11   ar
    29    11    12   ar
    30    12     3   ar
    31    12     7   ar
    32    23    18   ar
    33    28    24   ar
    34    14    17    1
    35     1     2    1
