@<TRIPOS>MOLECULE
*****
 38 42 0 0 0
SMALL
GASTEIGER

@<TRIPOS>ATOM
      1 C         143.3572  138.4262  160.4369 C.3     1  UNL1        0.0930
      2 C         144.1420  139.7021  160.5150 C.3     1  UNL1        0.0427
      3 C         144.0890  140.1930  161.9314 C.3     1  UNL1        0.0927
      4 N         143.2714  139.2205  162.7287 N.pl3   1  UNL1       -0.3033
      5 C         142.8191  138.1285  161.8051 C.3     1  UNL1        0.1104
      6 C         142.9605  139.3221  164.1927 C.ar    1  UNL1        0.0878
      7 C         143.9872  138.9144  165.2074 C.ar    1  UNL1        0.1543
      8 F         145.3247  138.4051  164.7582 F       1  UNL1       -0.2028
      9 C         143.6764  139.0160  166.6713 C.ar    1  UNL1        0.0356
     10 C         142.3389  139.5253  167.1204 C.ar    1  UNL1        0.0580
     11 C         142.0281  139.6269  168.5844 C.ar    1  UNL1        0.1996
     12 O         143.0547  139.2192  169.5991 O.2     1  UNL1       -0.2864
     13 C         140.6906  140.1362  169.0336 C.ar    1  UNL1        0.0701
     14 C         139.6639  140.5439  168.0188 C.ar    1  UNL1        0.0801
     15 N         139.9747  140.4423  166.5549 N.ar    1  UNL1       -0.3270
     16 C         141.3122  139.9330  166.1057 C.ar    1  UNL1        0.0750
     17 C         141.6231  139.8314  164.6418 C.ar    1  UNL1        0.0890
     18 CL        140.5964  140.2391  163.6270 Cl      1  UNL1       -0.0794
     19 C         140.3797  140.2378  170.4975 C.2     1  UNL1        0.0774
     20 O         141.0921  141.2481  171.3471 O.co2   1  UNL1       -0.5444
     21 O         139.3565  139.3291  171.1118 O.co2   1  UNL1       -0.5444
     22 C         138.9481  140.8500  165.5401 C.3     1  UNL1        0.0857
     23 C         138.2530  141.9216  164.7537 C.3     1  UNL1        0.0245
     24 C         137.8649  140.4846  164.5690 C.3     1  UNL1        0.0245
     25 C         142.1228  138.0031  158.1903 C.2     1  UNL1        0.2339
     26 O         141.3081  139.2444  158.4041 O.2     1  UNL1       -0.2741
     27 N         143.1473  137.5940  159.2067 N.am    1  UNL1       -0.3035
     28 H         143.6819  136.7793  159.0663 H       1  UNL1        0.1495
     29 C         141.9129  137.1709  156.9601 C.3     1  UNL1        0.1488
     30 S         143.0015  136.2592  156.4766 S.3     1  UNL1       -0.0768
     31 N         143.5382  131.1514  157.7022 N.pl3   1  UNL1       -0.3361
     32 C         143.0523  132.4247  157.0757 C.ar    1  UNL1        0.1798
     33 N         141.9560  132.5447  156.0589 N.ar    1  UNL1       -0.1254
     34 N         141.8035  133.9957  155.7108 N.ar    1  UNL1       -0.1332
     35 C         142.8056  134.7725  156.5123 C.ar    1  UNL1        0.1610
     36 S         143.5773  133.8015  157.3559 S.2     1  UNL1       -0.0247
     37 H         143.1280  130.2920  157.4522 H       1  UNL1        0.1442
     38 H         144.2672  131.1750  158.3634 H       1  UNL1        0.1442
@<TRIPOS>UNITY_ATOM_ATTR
20 1
charge -1
@<TRIPOS>BOND
     1    31    32    1
     2    32    33   ar
     3    33    34   ar
     4    34    35   ar
     5    35    30    1
     6    30    29    1
     7    29    25    1
     8    25    26    2
     9    25    27   am
    10    27     1    1
    11     1     2    1
    12     2     3    1
    13     3     4    1
    14     4     6    1
    15     6     7   ar
    16     7     8    1
    17     7     9   ar
    18     9    10   ar
    19    10    11   ar
    20    11    12    2
    21    11    13   ar
    22    13    19    1
    23    19    20   ar
    24    19    21   ar
    25    13    14   ar
    26    14    15   ar
    27    15    22    1
    28    22    23    1
    29    23    24    1
    30    15    16   ar
    31    16    17   ar
    32    17    18    1
    33     4     5    1
    34    35    36   ar
    35    36    32   ar
    36     5     1    1
    37    17     6   ar
    38    16    10   ar
    39    24    22    1
    40    31    37    1
    41    31    38    1
    42    27    28    1
@<TRIPOS>MOLECULE
*****
 38 42 0 0 0
SMALL
GASTEIGER

@<TRIPOS>ATOM
      1 C         138.3744  139.8640  159.4145 C.3     1  UNL1        0.0930
      2 C         139.5400  138.9202  159.4410 C.3     1  UNL1        0.0427
      3 C         140.0180  138.8136  160.8588 C.3     1  UNL1        0.0927
      4 N         139.1479  139.6916  161.7085 N.pl3   1  UNL1       -0.3033
      5 C         138.1321  140.3407  160.8159 C.3     1  UNL1        0.1104
      6 C         139.2717  139.8862  163.1907 C.ar    1  UNL1        0.0878
      7 C         138.8180  138.8077  164.1293 C.ar    1  UNL1        0.1543
      8 F         138.2405  137.5345  163.5857 F       1  UNL1       -0.2028
      9 C         138.9419  139.0024  165.6114 C.ar    1  UNL1        0.0356
     10 C         139.5195  140.2755  166.1550 C.ar    1  UNL1        0.0580
     11 C         139.6433  140.4702  167.6372 C.ar    1  UNL1        0.1996
     12 O         139.1897  139.3917  168.5757 O.2     1  UNL1       -0.2864
     13 C         140.2209  141.7433  168.1807 C.ar    1  UNL1        0.0701
     14 C         140.6746  142.8219  167.2421 C.ar    1  UNL1        0.0801
     15 N         140.5507  142.6272  165.7599 N.ar    1  UNL1       -0.3270
     16 C         139.9732  141.3540  165.2164 C.ar    1  UNL1        0.0750
     17 C         139.8493  141.1594  163.7343 C.ar    1  UNL1        0.0890
     18 CL        140.3030  142.2379  162.7956 Cl      1  UNL1       -0.0794
     19 C         140.3448  141.9380  169.6628 C.2     1  UNL1        0.0774
     20 O         139.1134  141.9913  170.5178 O.co2   1  UNL1       -0.5444
     21 O         141.7000  142.0795  170.2900 O.co2   1  UNL1       -0.5444
     22 C         141.0044  143.7057  164.8214 C.3     1  UNL1        0.0857
     23 C         140.6963  144.9040  163.9733 C.3     1  UNL1        0.0245
     24 C         142.0983  144.3755  164.0437 C.3     1  UNL1        0.0245
     25 C         137.7583  141.6311  157.6122 C.2     1  UNL1        0.2339
     26 O         138.7129  142.6035  158.2394 O.2     1  UNL1       -0.2741
     27 N         137.5891  140.2613  158.1998 N.am    1  UNL1       -0.3035
     28 H         136.9626  139.6231  157.7882 H       1  UNL1        0.1495
     29 C         136.9730  142.0284  156.3976 C.3     1  UNL1        0.1488
     30 S         136.1803  140.9994  155.6473 S.3     1  UNL1       -0.0768
     31 N         130.9131  140.6603  155.7903 N.pl3   1  UNL1       -0.3361
     32 C         132.3624  140.5103  156.1463 C.ar    1  UNL1        0.1798
     33 N         132.9057  139.7963  157.3484 N.ar    1  UNL1       -0.1254
     34 N         134.4020  139.8926  157.3078 N.ar    1  UNL1       -0.1332
     35 C         134.7835  140.6661  156.0806 C.ar    1  UNL1        0.1610
     36 S         133.5230  141.0478  155.3628 S.2     1  UNL1       -0.0247
     37 H         130.2206  140.2699  156.3710 H       1  UNL1        0.1442
     38 H         130.6543  141.1492  154.9759 H       1  UNL1        0.1442
@<TRIPOS>UNITY_ATOM_ATTR
20 1
charge -1
@<TRIPOS>BOND
     1    31    32    1
     2    32    33   ar
     3    33    34   ar
     4    34    35   ar
     5    35    30    1
     6    30    29    1
     7    29    25    1
     8    25    26    2
     9    25    27   am
    10    27     1    1
    11     1     2    1
    12     2     3    1
    13     3     4    1
    14     4     6    1
    15     6     7   ar
    16     7     8    1
    17     7     9   ar
    18     9    10   ar
    19    10    11   ar
    20    11    12    2
    21    11    13   ar
    22    13    19    1
    23    19    20   ar
    24    19    21   ar
    25    13    14   ar
    26    14    15   ar
    27    15    22    1
    28    22    23    1
    29    23    24    1
    30    15    16   ar
    31    16    17   ar
    32    17    18    1
    33     4     5    1
    34    35    36   ar
    35    36    32   ar
    36     5     1    1
    37    17     6   ar
    38    16    10   ar
    39    24    22    1
    40    31    37    1
    41    31    38    1
    42    27    28    1
@<TRIPOS>MOLECULE
*****
 38 42 0 0 0
SMALL
GASTEIGER

@<TRIPOS>ATOM
      1 C         140.7430  138.8791  159.0735 C.3     1  UNL1        0.0930
      2 C         140.2183  140.2821  158.9924 C.3     1  UNL1        0.0427
      3 C         139.8282  140.7118  160.3755 C.3     1  UNL1        0.0927
      4 N         140.1119  139.5745  161.3115 N.pl3   1  UNL1       -0.3033
      5 C         140.6772  138.4419  160.5068 C.3     1  UNL1        0.1104
      6 C         139.8722  139.5705  162.7923 C.ar    1  UNL1        0.0878
      7 C         138.7196  138.7990  163.3634 C.ar    1  UNL1        0.1543
      8 F         137.8066  138.0315  162.4539 F       1  UNL1       -0.2028
      9 C         138.4801  138.7950  164.8441 C.ar    1  UNL1        0.0356
     10 C         139.3931  139.5626  165.7537 C.ar    1  UNL1        0.0580
     11 C         139.1535  139.5585  167.2345 C.ar    1  UNL1        0.1996
     12 O         138.0008  138.7870  167.8056 O.2     1  UNL1       -0.2864
     13 C         140.0665  140.3261  168.1441 C.ar    1  UNL1        0.0701
     14 C         141.2191  141.0976  167.5728 C.ar    1  UNL1        0.0801
     15 N         141.4587  141.1016  166.0921 N.ar    1  UNL1       -0.3270
     16 C         140.5457  140.3340  165.1826 C.ar    1  UNL1        0.0750
     17 C         140.7853  140.3380  163.7019 C.ar    1  UNL1        0.0890
     18 CL        141.9379  141.1096  163.1306 Cl      1  UNL1       -0.0794
     19 C         139.8269  140.3221  169.6248 C.2     1  UNL1        0.0774
     20 O         140.6897  139.4849  170.5219 O.co2   1  UNL1       -0.5444
     21 O         138.7245  141.1553  170.2084 O.co2   1  UNL1       -0.5444
     22 C         142.6113  141.8731  165.5210 C.3     1  UNL1        0.0857
     23 C         144.0394  141.9278  165.0653 C.3     1  UNL1        0.0245
     24 C         143.1797  143.1545  164.9874 C.3     1  UNL1        0.0245
     25 C         142.6969  138.1011  157.5482 C.2     1  UNL1        0.2339
     26 O         143.6464  138.9658  158.3234 O.2     1  UNL1       -0.2741
     27 N         141.2452  138.0578  157.9232 N.am    1  UNL1       -0.3035
     28 H         140.6221  137.4903  157.4145 H       1  UNL1        0.1495
     29 C         143.1992  137.2797  156.3979 C.3     1  UNL1        0.1488
     30 S         142.2985  136.2733  155.7452 S.3     1  UNL1       -0.0768
     31 N         144.0124  131.7382  157.8367 N.pl3   1  UNL1       -0.3361
     32 C         143.2100  132.7348  157.0539 C.ar    1  UNL1        0.1798
     33 N         142.0150  132.4292  156.2003 N.ar    1  UNL1       -0.1254
     34 N         141.5281  133.7176  155.6061 N.ar    1  UNL1       -0.1332
     35 C         142.4222  134.8194  156.0925 C.ar    1  UNL1        0.1610
     36 S         143.4616  134.2120  156.9873 S.2     1  UNL1       -0.0247
     37 H         143.7675  130.7848  157.8171 H       1  UNL1        0.1442
     38 H         144.7839  132.0374  158.3700 H       1  UNL1        0.1442
@<TRIPOS>UNITY_ATOM_ATTR
20 1
charge -1
@<TRIPOS>BOND
     1    31    32    1
     2    32    33   ar
     3    33    34   ar
     4    34    35   ar
     5    35    30    1
     6    30    29    1
     7    29    25    1
     8    25    26    2
     9    25    27   am
    10    27     1    1
    11     1     2    1
    12     2     3    1
    13     3     4    1
    14     4     6    1
    15     6     7   ar
    16     7     8    1
    17     7     9   ar
    18     9    10   ar
    19    10    11   ar
    20    11    12    2
    21    11    13   ar
    22    13    19    1
    23    19    20   ar
    24    19    21   ar
    25    13    14   ar
    26    14    15   ar
    27    15    22    1
    28    22    23    1
    29    23    24    1
    30    15    16   ar
    31    16    17   ar
    32    17    18    1
    33     4     5    1
    34    35    36   ar
    35    36    32   ar
    36     5     1    1
    37    17     6   ar
    38    16    10   ar
    39    24    22    1
    40    31    37    1
    41    31    38    1
    42    27    28    1
@<TRIPOS>MOLECULE
*****
 38 42 0 0 0
SMALL
GASTEIGER

@<TRIPOS>ATOM
      1 C         143.1437  140.3733  160.7411 C.3     1  UNL1        0.0930
      2 C         144.1172  139.3614  161.2689 C.3     1  UNL1        0.0427
      3 C         144.1102  139.4487  162.7664 C.3     1  UNL1        0.0927
      4 N         143.1325  140.5144  163.1640 N.pl3   1  UNL1       -0.3033
      5 C         142.5352  141.0859  161.9123 C.3     1  UNL1        0.1104
      6 C         142.8089  140.9350  164.5671 C.ar    1  UNL1        0.0878
      7 C         143.7468  141.8352  165.3154 C.ar    1  UNL1        0.1543
      8 F         145.0083  142.3148  164.6608 F       1  UNL1       -0.2028
      9 C         143.4232  142.2557  166.7184 C.ar    1  UNL1        0.0356
     10 C         142.1617  141.7761  167.3730 C.ar    1  UNL1        0.0580
     11 C         141.8380  142.1966  168.7761 C.ar    1  UNL1        0.1996
     12 O         142.7759  143.0968  169.5244 O.2     1  UNL1       -0.2864
     13 C         140.5765  141.7170  169.4307 C.ar    1  UNL1        0.0701
     14 C         139.6386  140.8168  168.6823 C.ar    1  UNL1        0.0801
     15 N         139.9622  140.3963  167.2793 N.ar    1  UNL1       -0.3270
     16 C         141.2238  140.8759  166.6247 C.ar    1  UNL1        0.0750
     17 C         141.5474  140.4554  165.2217 C.ar    1  UNL1        0.0890
     18 CL        140.6095  139.5552  164.4733 Cl      1  UNL1       -0.0794
     19 C         140.2529  142.1375  170.8337 C.2     1  UNL1        0.0774
     20 O         139.4074  143.3526  171.0763 O.co2   1  UNL1       -0.5444
     21 O         140.7748  141.3430  171.9941 O.co2   1  UNL1       -0.5444
     22 C         139.0244  139.4962  166.5310 C.3     1  UNL1        0.0857
     23 C         138.4541  138.1309  166.2841 C.3     1  UNL1        0.0245
     24 C         137.9702  139.3022  165.4817 C.3     1  UNL1        0.0245
     25 C         141.9558  139.6758  158.5382 C.2     1  UNL1        0.2339
     26 O         141.3887  138.4694  159.2260 O.2     1  UNL1       -0.2741
     27 N         142.8333  140.6278  159.2958 N.am    1  UNL1       -0.3035
     28 H         143.2055  141.4196  158.8444 H       1  UNL1        0.1495
     29 C         141.6454  139.9304  157.0929 C.3     1  UNL1        0.1488
     30 S         142.4716  139.2808  156.0227 S.3     1  UNL1       -0.0768
     31 N         141.6073  134.0728  155.9226 N.pl3   1  UNL1       -0.3361
     32 C         142.2956  135.4035  155.9967 C.ar    1  UNL1        0.1798
     33 N         143.7710  135.6256  156.1503 N.ar    1  UNL1       -0.1254
     34 N         144.0166  137.1051  156.1787 N.ar    1  UNL1       -0.1332
     35 C         142.6929  137.7973  156.0427 C.ar    1  UNL1        0.1610
     36 S         141.6293  136.7457  155.9302 S.2     1  UNL1       -0.0247
     37 H         142.1339  133.2427  155.9756 H       1  UNL1        0.1442
     38 H         140.6290  134.0296  155.8210 H       1  UNL1        0.1442
@<TRIPOS>UNITY_ATOM_ATTR
20 1
charge -1
@<TRIPOS>BOND
     1    31    32    1
     2    32    33   ar
     3    33    34   ar
     4    34    35   ar
     5    35    30    1
     6    30    29    1
     7    29    25    1
     8    25    26    2
     9    25    27   am
    10    27     1    1
    11     1     2    1
    12     2     3    1
    13     3     4    1
    14     4     6    1
    15     6     7   ar
    16     7     8    1
    17     7     9   ar
    18     9    10   ar
    19    10    11   ar
    20    11    12    2
    21    11    13   ar
    22    13    19    1
    23    19    20   ar
    24    19    21   ar
    25    13    14   ar
    26    14    15   ar
    27    15    22    1
    28    22    23    1
    29    23    24    1
    30    15    16   ar
    31    16    17   ar
    32    17    18    1
    33     4     5    1
    34    35    36   ar
    35    36    32   ar
    36     5     1    1
    37    17     6   ar
    38    16    10   ar
    39    24    22    1
    40    31    37    1
    41    31    38    1
    42    27    28    1
@<TRIPOS>MOLECULE
*****
 38 42 0 0 0
SMALL
GASTEIGER

@<TRIPOS>ATOM
      1 C         140.5853  138.7642  160.5448 C.3     1  UNL1        0.0930
      2 C         139.4128  138.0088  161.0968 C.3     1  UNL1        0.0427
      3 C         139.3940  138.2042  162.5839 C.3     1  UNL1        0.0927
      4 N         140.5549  139.0802  162.9510 N.pl3   1  UNL1       -0.3033
      5 C         141.2912  139.4264  161.6908 C.3     1  UNL1        0.1104
      6 C         140.9161  139.5311  164.3354 C.ar    1  UNL1        0.0878
      7 C         141.7661  138.6583  165.2105 C.ar    1  UNL1        0.1543
      8 F         142.2548  137.3347  164.7013 F       1  UNL1       -0.2028
      9 C         142.1273  139.1092  166.5947 C.ar    1  UNL1        0.0356
     10 C         141.6386  140.4328  167.1039 C.ar    1  UNL1        0.0580
     11 C         141.9998  140.8836  168.4882 C.ar    1  UNL1        0.1996
     12 O         142.8497  140.0108  169.3633 O.2     1  UNL1       -0.2864
     13 C         141.5111  142.2072  168.9974 C.ar    1  UNL1        0.0701
     14 C         140.6611  143.0800  168.1222 C.ar    1  UNL1        0.0801
     15 N         140.2999  142.6291  166.7379 N.ar    1  UNL1       -0.3270
     16 C         140.7886  141.3055  166.2288 C.ar    1  UNL1        0.0750
     17 C         140.4274  140.8547  164.8445 C.ar    1  UNL1        0.0890
     18 CL        139.5774  141.7274  163.9693 Cl      1  UNL1       -0.0794
     19 C         141.8723  142.6580  170.3816 C.2     1  UNL1        0.0774
     20 O         143.0111  143.6126  170.5863 O.co2   1  UNL1       -0.5444
     21 O         141.0947  142.1543  171.5613 O.co2   1  UNL1       -0.5444
     22 C         139.4500  143.5019  165.8628 C.3     1  UNL1        0.0857
     23 C         139.2981  144.7145  164.9931 C.3     1  UNL1        0.0245
     24 C         138.1297  143.8009  165.2168 C.3     1  UNL1        0.0245
     25 C         142.1732  138.0767  158.6067 C.2     1  UNL1        0.2339
     26 O         142.9671  137.2305  159.5574 O.2     1  UNL1       -0.2741
     27 N         140.9823  138.8435  159.1005 N.am    1  UNL1       -0.3035
     28 H         140.4612  139.3989  158.4765 H       1  UNL1        0.1495
     29 C         142.5701  138.1560  157.1624 C.3     1  UNL1        0.1488
     30 S         141.9070  137.2671  156.1524 S.3     1  UNL1       -0.0768
     31 N         144.7445  132.8165  156.2951 N.pl3   1  UNL1       -0.3361
     32 C         143.6083  133.7787  156.1132 C.ar    1  UNL1        0.1798
     33 N         142.2218  133.4301  155.6594 N.ar    1  UNL1       -0.1254
     34 N         141.4157  134.6944  155.6188 N.ar    1  UNL1       -0.1332
     35 C         142.3040  135.8244  156.0476 C.ar    1  UNL1        0.1610
     36 S         143.6591  135.2584  156.3531 S.2     1  UNL1       -0.0247
     37 H         144.6124  131.8584  156.1111 H       1  UNL1        0.1442
     38 H         145.6223  133.1430  156.5985 H       1  UNL1        0.1442
@<TRIPOS>UNITY_ATOM_ATTR
20 1
charge -1
@<TRIPOS>BOND
     1    31    32    1
     2    32    33   ar
     3    33    34   ar
     4    34    35   ar
     5    35    30    1
     6    30    29    1
     7    29    25    1
     8    25    26    2
     9    25    27   am
    10    27     1    1
    11     1     2    1
    12     2     3    1
    13     3     4    1
    14     4     6    1
    15     6     7   ar
    16     7     8    1
    17     7     9   ar
    18     9    10   ar
    19    10    11   ar
    20    11    12    2
    21    11    13   ar
    22    13    19    1
    23    19    20   ar
    24    19    21   ar
    25    13    14   ar
    26    14    15   ar
    27    15    22    1
    28    22    23    1
    29    23    24    1
    30    15    16   ar
    31    16    17   ar
    32    17    18    1
    33     4     5    1
    34    35    36   ar
    35    36    32   ar
    36     5     1    1
    37    17     6   ar
    38    16    10   ar
    39    24    22    1
    40    31    37    1
    41    31    38    1
    42    27    28    1
@<TRIPOS>MOLECULE
*****
 38 42 0 0 0
SMALL
GASTEIGER

@<TRIPOS>ATOM
      1 C         141.2020  138.5168  160.4861 C.3     1  UNL1        0.0930
      2 C         142.3355  137.7004  161.0326 C.3     1  UNL1        0.0427
      3 C         142.3670  137.8884  162.5205 C.3     1  UNL1        0.0927
      4 N         141.2529  138.8209  162.8935 N.pl3   1  UNL1       -0.3033
      5 C         140.5329  139.2093  161.6362 C.3     1  UNL1        0.1104
      6 C         140.9177  139.2838  164.2804 C.ar    1  UNL1        0.0878
      7 C         139.8679  138.5673  165.0770 C.ar    1  UNL1        0.1543
      8 F         139.1533  137.3879  164.4868 F       1  UNL1       -0.2028
      9 C         139.5327  139.0303  166.4638 C.ar    1  UNL1        0.0356
     10 C         140.2472  140.2097  167.0540 C.ar    1  UNL1        0.0580
     11 C         139.9120  140.6726  168.4409 C.ar    1  UNL1        0.1996
     12 O         138.8622  139.9561  169.2375 O.2     1  UNL1       -0.2864
     13 C         140.6265  141.8520  169.0312 C.ar    1  UNL1        0.0701
     14 C         141.6764  142.5685  168.2345 C.ar    1  UNL1        0.0801
     15 N         142.0116  142.1056  166.8477 N.ar    1  UNL1       -0.3270
     16 C         141.2970  140.9262  166.2575 C.ar    1  UNL1        0.0750
     17 C         141.6322  140.4632  164.8707 C.ar    1  UNL1        0.0890
     18 CL        142.6821  141.1797  164.0740 Cl      1  UNL1       -0.0794
     19 C         140.2913  142.3149  170.4180 C.2     1  UNL1        0.0774
     20 O         139.6568  143.6579  170.6276 O.co2   1  UNL1       -0.5444
     21 O         140.5906  141.4349  171.5953 O.co2   1  UNL1       -0.5444
     22 C         143.0614  142.8221  166.0512 C.3     1  UNL1        0.0857
     23 C         144.5022  143.1622  165.8099 C.3     1  UNL1        0.0245
     24 C         143.4388  143.7229  164.9128 C.3     1  UNL1        0.0245
     25 C         141.8568  138.8235  157.9907 C.2     1  UNL1        0.2339
     26 O         143.3019  138.9193  158.3817 O.2     1  UNL1       -0.2741
     27 N         140.8069  138.6222  159.0429 N.am    1  UNL1       -0.3035
     28 H         139.8585  138.5593  158.7863 H       1  UNL1        0.1495
     29 C         141.4618  138.9288  156.5475 C.3     1  UNL1        0.1488
     30 S         142.1925  138.1296  155.5096 S.3     1  UNL1       -0.0768
     31 N         144.5531  133.4935  156.4120 N.pl3   1  UNL1       -0.3361
     32 C         143.5065  134.5308  156.1319 C.ar    1  UNL1        0.1798
     33 N         142.0408  134.2753  155.9412 N.ar    1  UNL1       -0.1254
     34 N         141.3701  135.5923  155.6848 N.ar    1  UNL1       -0.1332
     35 C         142.4214  136.6617  155.7172 C.ar    1  UNL1        0.1610
     36 S         143.7417  136.0057  155.9935 S.2     1  UNL1       -0.0247
     37 H         144.2991  132.5452  156.4855 H       1  UNL1        0.1442
     38 H         145.4942  133.7610  156.5223 H       1  UNL1        0.1442
@<TRIPOS>UNITY_ATOM_ATTR
20 1
charge -1
@<TRIPOS>BOND
     1    31    32    1
     2    32    33   ar
     3    33    34   ar
     4    34    35   ar
     5    35    30    1
     6    30    29    1
     7    29    25    1
     8    25    26    2
     9    25    27   am
    10    27     1    1
    11     1     2    1
    12     2     3    1
    13     3     4    1
    14     4     6    1
    15     6     7   ar
    16     7     8    1
    17     7     9   ar
    18     9    10   ar
    19    10    11   ar
    20    11    12    2
    21    11    13   ar
    22    13    19    1
    23    19    20   ar
    24    19    21   ar
    25    13    14   ar
    26    14    15   ar
    27    15    22    1
    28    22    23    1
    29    23    24    1
    30    15    16   ar
    31    16    17   ar
    32    17    18    1
    33     4     5    1
    34    35    36   ar
    35    36    32   ar
    36     5     1    1
    37    17     6   ar
    38    16    10   ar
    39    24    22    1
    40    31    37    1
    41    31    38    1
    42    27    28    1
@<TRIPOS>MOLECULE
*****
 38 42 0 0 0
SMALL
GASTEIGER

@<TRIPOS>ATOM
      1 C         143.2167  140.5854  160.7891 C.3     1  UNL1        0.0930
      2 C         144.0911  139.4826  161.3082 C.3     1  UNL1        0.0427
      3 C         144.0489  139.5240  162.8070 C.3     1  UNL1        0.0927
      4 N         143.1485  140.6524  163.2143 N.pl3   1  UNL1       -0.3033
      5 C         142.6342  141.3083  161.9672 C.3     1  UNL1        0.1104
      6 C         142.8200  141.0543  164.6217 C.ar    1  UNL1        0.0878
      7 C         143.7626  141.9321  165.3904 C.ar    1  UNL1        0.1543
      8 F         145.0337  142.4079  164.7519 F       1  UNL1       -0.2028
      9 C         143.4340  142.3339  166.7977 C.ar    1  UNL1        0.0356
     10 C         142.1629  141.8581  167.4363 C.ar    1  UNL1        0.0580
     11 C         141.8344  142.2600  168.8437 C.ar    1  UNL1        0.1996
     12 O         142.7770  143.1378  169.6124 O.2     1  UNL1       -0.2864
     13 C         140.5632  141.7841  169.4822 C.ar    1  UNL1        0.0701
     14 C         139.6206  140.9063  168.7134 C.ar    1  UNL1        0.0801
     15 N         139.9491  140.5045  167.3061 N.ar    1  UNL1       -0.3270
     16 C         141.2203  140.9803  166.6675 C.ar    1  UNL1        0.0750
     17 C         141.5488  140.5784  165.2603 C.ar    1  UNL1        0.0890
     18 CL        140.6062  139.7006  164.4914 Cl      1  UNL1       -0.0794
     19 C         140.2347  142.1860  170.8895 C.2     1  UNL1        0.0774
     20 O         140.8034  141.4131  172.0424 O.co2   1  UNL1       -0.5444
     21 O         139.3374  143.3608  171.1439 O.co2   1  UNL1       -0.5444
     22 C         139.0065  139.6267  166.5374 C.3     1  UNL1        0.0857
     23 C         138.3937  138.2798  166.2921 C.3     1  UNL1        0.0245
     24 C         137.9868  139.4533  165.4511 C.3     1  UNL1        0.0245
     25 C         143.7645  141.9858  158.6705 C.2     1  UNL1        0.2339
     26 O         144.8087  142.7402  159.4391 O.2     1  UNL1       -0.2741
     27 N         142.9685  140.9084  159.3455 N.am    1  UNL1       -0.3035
     28 H         142.2832  140.4133  158.8411 H       1  UNL1        0.1495
     29 C         143.5163  142.3089  157.2269 C.3     1  UNL1        0.1488
     30 S         142.1719  142.8117  156.7912 S.3     1  UNL1       -0.0768
     31 N         139.8513  145.8626  160.4226 N.pl3   1  UNL1       -0.3361
     32 C         140.1324  144.7319  159.4779 C.ar    1  UNL1        0.1798
     33 N         139.2717  143.5210  159.2712 N.ar    1  UNL1       -0.1254
     34 N         139.9309  142.6543  158.2397 N.ar    1  UNL1       -0.1332
     35 C         141.1991  143.3296  157.8088 C.ar    1  UNL1        0.1610
     36 S         141.3236  144.6136  158.5741 S.2     1  UNL1       -0.0247
     37 H         139.0382  145.8499  160.9775 H       1  UNL1        0.1442
     38 H         140.4799  146.6176  160.4877 H       1  UNL1        0.1442
@<TRIPOS>UNITY_ATOM_ATTR
20 1
charge -1
@<TRIPOS>BOND
     1    31    32    1
     2    32    33   ar
     3    33    34   ar
     4    34    35   ar
     5    35    30    1
     6    30    29    1
     7    29    25    1
     8    25    26    2
     9    25    27   am
    10    27     1    1
    11     1     2    1
    12     2     3    1
    13     3     4    1
    14     4     6    1
    15     6     7   ar
    16     7     8    1
    17     7     9   ar
    18     9    10   ar
    19    10    11   ar
    20    11    12    2
    21    11    13   ar
    22    13    19    1
    23    19    20   ar
    24    19    21   ar
    25    13    14   ar
    26    14    15   ar
    27    15    22    1
    28    22    23    1
    29    23    24    1
    30    15    16   ar
    31    16    17   ar
    32    17    18    1
    33     4     5    1
    34    35    36   ar
    35    36    32   ar
    36     5     1    1
    37    17     6   ar
    38    16    10   ar
    39    24    22    1
    40    31    37    1
    41    31    38    1
    42    27    28    1
@<TRIPOS>MOLECULE
*****
 38 42 0 0 0
SMALL
GASTEIGER

@<TRIPOS>ATOM
      1 C         139.7020  139.4778  160.3048 C.3     1  UNL1        0.0930
      2 C         140.6096  138.3142  160.5740 C.3     1  UNL1        0.0427
      3 C         140.8437  138.2416  162.0539 C.3     1  UNL1        0.0927
      4 N         140.0807  139.3602  162.6993 N.pl3   1  UNL1       -0.3033
      5 C         139.3751  140.1242  161.6183 C.3     1  UNL1        0.1104
      6 C         140.0318  139.6619  164.1679 C.ar    1  UNL1        0.0878
      7 C         139.0662  138.9300  165.0522 C.ar    1  UNL1        0.1543
      8 F         138.1494  137.8965  164.4679 F       1  UNL1       -0.2028
      9 C         139.0174  139.2318  166.5207 C.ar    1  UNL1        0.0356
     10 C         139.9342  140.2653  167.1049 C.ar    1  UNL1        0.0580
     11 C         139.8854  140.5670  168.5735 C.ar    1  UNL1        0.1996
     12 O         138.9198  139.8352  169.4578 O.2     1  UNL1       -0.2864
     13 C         140.8021  141.6005  169.1577 C.ar    1  UNL1        0.0701
     14 C         141.7678  142.3323  168.2733 C.ar    1  UNL1        0.0801
     15 N         141.8166  142.0306  166.8048 N.ar    1  UNL1       -0.3270
     16 C         140.8998  140.9971  166.2206 C.ar    1  UNL1        0.0750
     17 C         140.9486  140.6954  164.7521 C.ar    1  UNL1        0.0890
     18 CL        141.9143  141.4272  163.8677 Cl      1  UNL1       -0.0794
     19 C         140.7533  141.9022  170.6262 C.2     1  UNL1        0.0774
     20 O         139.7477  142.8799  171.1580 O.co2   1  UNL1       -0.5444
     21 O         141.7102  141.2262  171.5630 O.co2   1  UNL1       -0.5444
     22 C         142.7822  142.7624  165.9205 C.3     1  UNL1        0.0857
     23 C         144.1845  142.9971  165.4425 C.3     1  UNL1        0.0245
     24 C         143.0525  143.7953  164.8670 C.3     1  UNL1        0.0245
     25 C         139.9824  140.9318  158.1701 C.2     1  UNL1        0.2339
     26 O         141.2509  141.5062  158.7280 O.2     1  UNL1       -0.2741
     27 N         139.2080  139.9176  158.9586 N.am    1  UNL1       -0.3035
     28 H         138.3754  139.5406  158.5924 H       1  UNL1        0.1495
     29 C         139.4884  141.3716  156.8238 C.3     1  UNL1        0.1488
     30 S         138.2391  142.1948  156.7155 S.3     1  UNL1       -0.0768
     31 N         133.5260  140.9172  154.7069 N.pl3   1  UNL1       -0.3361
     32 C         134.7489  140.9365  155.5753 C.ar    1  UNL1        0.1798
     33 N         135.0073  140.0456  156.7541 N.ar    1  UNL1       -0.1254
     34 N         136.3462  140.4086  157.3247 N.ar    1  UNL1       -0.1332
     35 C         136.9152  141.5237  156.4985 C.ar    1  UNL1        0.1610
     36 S         135.9280  141.8499  155.4174 S.2     1  UNL1       -0.0247
     37 H         132.8012  140.2770  154.8915 H       1  UNL1        0.1442
     38 H         133.4482  141.5447  153.9523 H       1  UNL1        0.1442
@<TRIPOS>UNITY_ATOM_ATTR
20 1
charge -1
@<TRIPOS>BOND
     1    31    32    1
     2    32    33   ar
     3    33    34   ar
     4    34    35   ar
     5    35    30    1
     6    30    29    1
     7    29    25    1
     8    25    26    2
     9    25    27   am
    10    27     1    1
    11     1     2    1
    12     2     3    1
    13     3     4    1
    14     4     6    1
    15     6     7   ar
    16     7     8    1
    17     7     9   ar
    18     9    10   ar
    19    10    11   ar
    20    11    12    2
    21    11    13   ar
    22    13    19    1
    23    19    20   ar
    24    19    21   ar
    25    13    14   ar
    26    14    15   ar
    27    15    22    1
    28    22    23    1
    29    23    24    1
    30    15    16   ar
    31    16    17   ar
    32    17    18    1
    33     4     5    1
    34    35    36   ar
    35    36    32   ar
    36     5     1    1
    37    17     6   ar
    38    16    10   ar
    39    24    22    1
    40    31    37    1
    41    31    38    1
    42    27    28    1
@<TRIPOS>MOLECULE
*****
 38 42 0 0 0
SMALL
GASTEIGER

@<TRIPOS>ATOM
      1 C         140.7050  138.8948  160.4525 C.3     1  UNL1        0.0930
      2 C         139.4571  138.1882  160.8926 C.3     1  UNL1        0.0427
      3 C         139.3127  138.3814  162.3731 C.3     1  UNL1        0.0927
      4 N         140.4713  139.2073  162.8480 N.pl3   1  UNL1       -0.3033
      5 C         141.3317  139.5246  161.6610 C.3     1  UNL1        0.1104
      6 C         140.7250  139.6400  164.2617 C.ar    1  UNL1        0.0878
      7 C         141.3968  138.7050  165.2231 C.ar    1  UNL1        0.1543
      8 F         141.8150  137.3372  164.7709 F       1  UNL1       -0.2028
      9 C         141.6504  139.1377  166.6367 C.ar    1  UNL1        0.0356
     10 C         141.2323  140.5054  167.0890 C.ar    1  UNL1        0.0580
     11 C         141.4859  140.9381  168.5027 C.ar    1  UNL1        0.1996
     12 O         142.1577  140.0030  169.4641 O.2     1  UNL1       -0.2864
     13 C         141.0678  142.3058  168.9549 C.ar    1  UNL1        0.0701
     14 C         140.3959  143.2408  167.9934 C.ar    1  UNL1        0.0801
     15 N         140.1423  142.8081  166.5797 N.ar    1  UNL1       -0.3270
     16 C         140.5605  141.4404  166.1275 C.ar    1  UNL1        0.0750
     17 C         140.3068  141.0077  164.7139 C.ar    1  UNL1        0.0890
     18 CL        139.6350  141.9427  163.7524 Cl      1  UNL1       -0.0794
     19 C         141.3214  142.7385  170.3685 C.2     1  UNL1        0.0774
     20 O         140.3361  142.3953  171.4462 O.co2   1  UNL1       -0.5444
     21 O         142.5604  143.5144  170.7045 O.co2   1  UNL1       -0.5444
     22 C         139.4705  143.7431  165.6183 C.3     1  UNL1        0.0857
     23 C         138.2181  144.3208  165.0285 C.3     1  UNL1        0.0245
     24 C         139.5592  144.7850  164.5429 C.3     1  UNL1        0.0245
     25 C         142.4082  138.1172  158.6513 C.2     1  UNL1        0.2339
     26 O         143.0549  137.2090  159.6549 O.2     1  UNL1       -0.2741
     27 N         141.2332  138.9601  159.0501 N.am    1  UNL1       -0.3035
     28 H         140.8088  139.5561  158.3915 H       1  UNL1        0.1495
     29 C         142.9364  138.1825  157.2489 C.3     1  UNL1        0.1488
     30 S         143.0256  139.5023  156.5417 S.3     1  UNL1       -0.0768
     31 N         146.7801  143.0748  157.5522 N.pl3   1  UNL1       -0.3361
     32 C         145.5112  142.2785  157.6277 C.ar    1  UNL1        0.1798
     33 N         144.3982  142.4848  158.6119 N.ar    1  UNL1       -0.1254
     34 N         143.3316  141.4699  158.3249 N.ar    1  UNL1       -0.1332
     35 C         143.7854  140.6364  157.1633 C.ar    1  UNL1        0.1610
     36 S         145.1325  141.1362  156.7325 S.2     1  UNL1       -0.0247
     37 H         146.9385  143.8099  158.1876 H       1  UNL1        0.1442
     38 H         147.4545  142.8624  156.8671 H       1  UNL1        0.1442
@<TRIPOS>UNITY_ATOM_ATTR
20 1
charge -1
@<TRIPOS>BOND
     1    31    32    1
     2    32    33   ar
     3    33    34   ar
     4    34    35   ar
     5    35    30    1
     6    30    29    1
     7    29    25    1
     8    25    26    2
     9    25    27   am
    10    27     1    1
    11     1     2    1
    12     2     3    1
    13     3     4    1
    14     4     6    1
    15     6     7   ar
    16     7     8    1
    17     7     9   ar
    18     9    10   ar
    19    10    11   ar
    20    11    12    2
    21    11    13   ar
    22    13    19    1
    23    19    20   ar
    24    19    21   ar
    25    13    14   ar
    26    14    15   ar
    27    15    22    1
    28    22    23    1
    29    23    24    1
    30    15    16   ar
    31    16    17   ar
    32    17    18    1
    33     4     5    1
    34    35    36   ar
    35    36    32   ar
    36     5     1    1
    37    17     6   ar
    38    16    10   ar
    39    24    22    1
    40    31    37    1
    41    31    38    1
    42    27    28    1
