@<TRIPOS>MOLECULE
*****
 41 46 0 0 0
SMALL
GASTEIGER

@<TRIPOS>ATOM
      1 C         139.3095  137.9081  164.7546 C.3     1  UNL1        0.1272
      2 C         140.7461  137.5574  165.0062 C.3     1  UNL1        0.0342
      3 C         141.6885  137.3825  163.8523 C.3     1  UNL1        0.0197
      4 C         141.1943  137.5584  162.4470 C.3     1  UNL1        0.0701
      5 C         139.7578  137.9091  162.1955 C.3     1  UNL1        0.0197
      6 C         138.8153  138.0839  163.3494 C.3     1  UNL1        0.0342
      7 C         140.6405  137.6644  163.0470 C.3     1  UNL1        0.1566
      8 O         139.7884  137.8225  164.0904 O.3     1  UNL1       -0.3518
      9 C         138.3671  138.0829  165.9085 C.2     1  UNL1        0.1032
     10 N         137.7179  136.8846  166.5348 N.2     1  UNL1       -0.0926
     11 O         137.0877  136.8797  167.2908 O.2     1  UNL1       -0.4092
     12 H         136.7395  136.0686  167.6052 H       1  UNL1        0.3278
     13 C         138.0739  139.4563  166.4359 C.3     1  UNL1        0.0772
     14 C         138.6842  142.7740  163.4576 C.ar    1  UNL1        0.2250
     15 C         139.8001  143.7578  163.6491 C.ar    1  UNL1        0.0593
     16 C         140.7126  143.6358  164.8333 C.ar    1  UNL1        0.0254
     17 C         140.5092  142.5299  165.8261 C.ar    1  UNL1        0.0990
     18 N         141.4217  142.4079  167.0103 N.ar    1  UNL1       -0.2400
     19 C         141.2183  141.3020  168.0031 C.ar    1  UNL1        0.1281
     20 C         140.1024  140.3181  167.8117 C.ar    1  UNL1        0.1570
     21 F         140.0636  139.6377  168.5217 F       1  UNL1       -0.2028
     22 C         139.1899  140.4401  166.6274 C.ar    1  UNL1        0.0318
     23 C         139.3933  141.5460  165.6346 C.ar    1  UNL1        0.1005
     24 N         138.4808  141.6681  164.4503 N.ar    1  UNL1       -0.2104
     25 C         138.2602  142.5137  160.9076 C.3     1  UNL1        0.2542
     26 O         137.7717  142.8960  162.2734 O.3     1  UNL1       -0.4561
     27 N         142.1367  137.3835  161.2932 N.3     1  UNL1       -0.2926
     28 H         141.6136  137.6134  160.4483 H       1  UNL1        0.1236
     29 C         143.4122  138.1712  161.2406 C.3     1  UNL1        0.1152
     30 C         143.3993  139.6405  161.5426 C.ar    1  UNL1        0.0765
     31 C         142.8474  140.6079  160.5377 C.ar    1  UNL1        0.0193
     32 C         142.8345  142.0771  160.8397 C.ar    1  UNL1        0.0411
     33 C         143.3735  142.5789  162.1465 C.ar    1  UNL1        0.1708
     34 C         143.9254  141.6116  163.1513 C.ar    1  UNL1        0.1682
     35 N         143.9383  140.1423  162.8493 N.ar    1  UNL1       -0.2304
     36 N         144.4644  142.1134  164.4581 N.am    1  UNL1       -0.2639
     37 C         144.4515  143.5826  164.7601 C.2     1  UNL1        0.2718
     38 O         144.9904  144.0845  166.0668 O.2     1  UNL1       -0.2707
     39 C         143.8996  144.5500  163.7552 C.3     1  UNL1        0.2898
     40 O         143.3606  144.0482  162.4485 O.3     1  UNL1       -0.4628
     41 H         144.8266  141.4785  165.1176 H       1  UNL1        0.1565
@<TRIPOS>BOND
     1    25    26    1
     2    26    14    1
     3    14    15   ar
     4    15    16   ar
     5    16    17   ar
     6    17    18   ar
     7    18    19   ar
     8    19    20   ar
     9    20    21    1
    10    20    22   ar
    11    22    13    1
    12    13     9    1
    13     9    10    2
    14    10    11    1
    15     9     1    1
    16     1     2    1
    17     2     3    1
    18     3     4    1
    19     4    27    1
    20    27    29    1
    21    29    30    1
    22    30    31   ar
    23    31    32   ar
    24    32    33   ar
    25    33    34   ar
    26    34    35   ar
    27    34    36    1
    28    36    37   am
    29    37    38    2
    30    37    39    1
    31    39    40    1
    32     4     5    1
    33     5     6    1
    34     4     7    1
    35     7     8    1
    36    22    23   ar
    37    23    24   ar
    38    24    14   ar
    39    23    17   ar
    40     6     1    1
    41     8     1    1
    42    35    30   ar
    43    40    33    1
    44    11    12    1
    45    27    28    1
    46    36    41    1
@<TRIPOS>MOLECULE
*****
 41 46 0 0 0
SMALL
GASTEIGER

@<TRIPOS>ATOM
      1 C         139.3342  138.0520  164.7956 C.3     1  UNL1        0.1272
      2 C         140.7294  137.5892  165.0947 C.3     1  UNL1        0.0342
      3 C         141.6900  137.3290  163.9724 C.3     1  UNL1        0.0197
      4 C         141.2555  137.5315  162.5511 C.3     1  UNL1        0.0701
      5 C         139.8604  137.9943  162.2520 C.3     1  UNL1        0.0197
      6 C         138.8998  138.2545  163.3743 C.3     1  UNL1        0.0342
      7 C         140.6937  137.6870  163.1325 C.3     1  UNL1        0.1566
      8 O         139.8250  137.9223  164.1474 O.3     1  UNL1       -0.3518
      9 C         138.3736  138.3122  165.9179 C.2     1  UNL1        0.1032
     10 N         137.6106  137.1755  166.5307 N.2     1  UNL1       -0.0926
     11 O         136.9589  137.2280  167.2663 O.2     1  UNL1       -0.4092
     12 H         136.5367  136.4503  167.5746 H       1  UNL1        0.3278
     13 C         138.1760  139.7093  166.4272 C.3     1  UNL1        0.0772
     14 C         141.7866  140.0807  169.0873 C.ar    1  UNL1        0.2250
     15 C         142.8182  141.1334  168.8089 C.ar    1  UNL1        0.0593
     16 C         142.6463  142.0623  167.6437 C.ar    1  UNL1        0.0254
     17 C         141.4428  141.9385  166.7570 C.ar    1  UNL1        0.0990
     18 N         141.2709  142.8674  165.5918 N.ar    1  UNL1       -0.2400
     19 C         140.0674  142.7436  164.7051 C.ar    1  UNL1        0.1281
     20 C         139.0357  141.6909  164.9835 C.ar    1  UNL1        0.1570
     21 F         138.2917  141.7018  164.3395 F       1  UNL1       -0.2028
     22 C         139.2077  140.7620  166.1488 C.ar    1  UNL1        0.0318
     23 C         140.4111  140.8858  167.0354 C.ar    1  UNL1        0.1005
     24 N         140.5831  139.9569  168.2006 N.ar    1  UNL1       -0.2104
     25 C         143.0186  138.0913  170.2161 C.3     1  UNL1        0.2542
     26 O         141.9584  139.1518  170.2524 O.3     1  UNL1       -0.4561
     27 N         142.2161  137.2713  161.4288 N.3     1  UNL1       -0.2926
     28 H         141.6840  137.3481  160.5620 H       1  UNL1        0.1236
     29 C         143.4329  138.1337  161.2679 C.3     1  UNL1        0.1152
     30 C         143.3616  139.5980  161.5855 C.ar    1  UNL1        0.0765
     31 C         142.6580  140.5351  160.6491 C.ar    1  UNL1        0.0193
     32 C         142.5867  141.9994  160.9667 C.ar    1  UNL1        0.0411
     33 C         143.2190  142.5265  162.2206 C.ar    1  UNL1        0.1708
     34 C         143.9226  141.5894  163.1570 C.ar    1  UNL1        0.1682
     35 N         143.9939  140.1251  162.8394 N.ar    1  UNL1       -0.2304
     36 N         144.5549  142.1165  164.4109 N.am    1  UNL1       -0.2639
     37 C         144.4837  143.5807  164.7285 C.2     1  UNL1        0.2718
     38 O         145.1160  144.1079  165.9824 O.2     1  UNL1       -0.2707
     39 C         143.7801  144.5179  163.7921 C.3     1  UNL1        0.2898
     40 O         143.1478  143.9908  162.5382 O.3     1  UNL1       -0.4628
     41 H         145.0167  141.5014  165.0255 H       1  UNL1        0.1565
@<TRIPOS>BOND
     1    25    26    1
     2    26    14    1
     3    14    15   ar
     4    15    16   ar
     5    16    17   ar
     6    17    18   ar
     7    18    19   ar
     8    19    20   ar
     9    20    21    1
    10    20    22   ar
    11    22    13    1
    12    13     9    1
    13     9    10    2
    14    10    11    1
    15     9     1    1
    16     1     2    1
    17     2     3    1
    18     3     4    1
    19     4    27    1
    20    27    29    1
    21    29    30    1
    22    30    31   ar
    23    31    32   ar
    24    32    33   ar
    25    33    34   ar
    26    34    35   ar
    27    34    36    1
    28    36    37   am
    29    37    38    2
    30    37    39    1
    31    39    40    1
    32     4     5    1
    33     5     6    1
    34     4     7    1
    35     7     8    1
    36    22    23   ar
    37    23    24   ar
    38    24    14   ar
    39    23    17   ar
    40     6     1    1
    41     8     1    1
    42    35    30   ar
    43    40    33    1
    44    11    12    1
    45    27    28    1
    46    36    41    1
@<TRIPOS>MOLECULE
*****
 41 46 0 0 0
SMALL
GASTEIGER

@<TRIPOS>ATOM
      1 C         139.3582  137.9298  164.7339 C.3     1  UNL1        0.1272
      2 C         138.8716  138.1139  163.3270 C.3     1  UNL1        0.0342
      3 C         139.8078  137.8977  162.1752 C.3     1  UNL1        0.0197
      4 C         141.2308  137.4973  162.4303 C.3     1  UNL1        0.0701
      5 C         141.7174  137.3132  163.8371 C.3     1  UNL1        0.0197
      6 C         140.7811  137.5294  164.9889 C.3     1  UNL1        0.0342
      7 C         140.7549  137.6044  163.0935 C.3     1  UNL1        0.1566
      8 O         139.9082  137.8000  164.1351 O.3     1  UNL1       -0.3518
      9 C         138.4220  138.1460  165.8857 C.2     1  UNL1        0.1032
     10 N         137.7228  136.9768  166.5136 N.2     1  UNL1       -0.0926
     11 O         137.0918  136.9997  167.2684 O.2     1  UNL1       -0.4092
     12 H         136.7099  136.2043  167.5840 H       1  UNL1        0.3278
     13 C         138.1849  139.5314  166.4096 C.3     1  UNL1        0.0772
     14 C         142.2823  140.4413  168.0322 C.ar    1  UNL1        0.2250
     15 C         143.0673  141.5954  167.4828 C.ar    1  UNL1        0.0593
     16 C         142.4865  142.4462  166.3925 C.ar    1  UNL1        0.0254
     17 C         141.1206  142.1430  165.8516 C.ar    1  UNL1        0.0990
     18 N         140.5398  142.9938  164.7614 N.ar    1  UNL1       -0.2400
     19 C         139.1739  142.6905  164.2204 C.ar    1  UNL1        0.1281
     20 C         138.3889  141.5364  164.7699 C.ar    1  UNL1        0.1570
     21 F         137.5090  141.4314  164.3419 F       1  UNL1       -0.2028
     22 C         138.9698  140.6855  165.8602 C.ar    1  UNL1        0.0318
     23 C         140.3356  140.9888  166.4010 C.ar    1  UNL1        0.1005
     24 N         140.9165  140.1380  167.4914 N.ar    1  UNL1       -0.2104
     25 C         142.8295  140.0673  170.5443 C.3     1  UNL1        0.2542
     26 O         142.8631  139.5905  169.1225 O.3     1  UNL1       -0.4561
     27 N         142.1670  137.2811  161.2784 N.3     1  UNL1       -0.2926
     28 H         141.6386  137.4779  160.4285 H       1  UNL1        0.1236
     29 C         143.4404  138.0689  161.1889 C.3     1  UNL1        0.1152
     30 C         143.4914  139.4740  161.7117 C.ar    1  UNL1        0.0765
     31 C         144.4420  139.8292  162.8163 C.ar    1  UNL1        0.0193
     32 C         144.4930  141.2342  163.3391 C.ar    1  UNL1        0.0411
     33 C         143.5933  142.2840  162.7572 C.ar    1  UNL1        0.1708
     34 C         142.6427  141.9288  161.6526 C.ar    1  UNL1        0.1682
     35 N         142.5918  140.5237  161.1298 N.ar    1  UNL1       -0.2304
     36 N         141.7430  142.9786  161.0707 N.am    1  UNL1       -0.2639
     37 C         141.7940  144.3836  161.5934 C.2     1  UNL1        0.2718
     38 O         140.8944  145.4334  161.0116 O.2     1  UNL1       -0.2707
     39 C         142.7446  144.7389  162.6981 C.3     1  UNL1        0.2898
     40 O         143.6442  143.6891  163.2799 O.3     1  UNL1       -0.4628
     41 H         141.1191  142.7454  160.3457 H       1  UNL1        0.1565
@<TRIPOS>BOND
     1    25    26    1
     2    26    14    1
     3    14    15   ar
     4    15    16   ar
     5    16    17   ar
     6    17    18   ar
     7    18    19   ar
     8    19    20   ar
     9    20    21    1
    10    20    22   ar
    11    22    13    1
    12    13     9    1
    13     9    10    2
    14    10    11    1
    15     9     1    1
    16     1     2    1
    17     2     3    1
    18     3     4    1
    19     4    27    1
    20    27    29    1
    21    29    30    1
    22    30    31   ar
    23    31    32   ar
    24    32    33   ar
    25    33    34   ar
    26    34    35   ar
    27    34    36    1
    28    36    37   am
    29    37    38    2
    30    37    39    1
    31    39    40    1
    32     4     5    1
    33     5     6    1
    34     4     7    1
    35     7     8    1
    36    22    23   ar
    37    23    24   ar
    38    24    14   ar
    39    23    17   ar
    40     6     1    1
    41     8     1    1
    42    35    30   ar
    43    40    33    1
    44    11    12    1
    45    27    28    1
    46    36    41    1
@<TRIPOS>MOLECULE
*****
 41 46 0 0 0
SMALL
GASTEIGER

@<TRIPOS>ATOM
      1 C         142.9945  142.3041  164.3496 C.3     1  UNL1        0.1272
      2 C         142.1724  142.2232  165.6017 C.3     1  UNL1        0.0342
      3 C         140.9747  143.1102  165.7712 C.3     1  UNL1        0.0197
      4 C         140.5991  144.0781  164.6885 C.3     1  UNL1        0.0701
      5 C         141.4211  144.1590  163.4365 C.3     1  UNL1        0.0197
      6 C         142.6188  143.2720  163.2670 C.3     1  UNL1        0.0342
      7 C         141.2639  143.6125  164.5504 C.3     1  UNL1        0.1566
      8 O         142.3470  142.8104  164.3971 O.3     1  UNL1       -0.3518
      9 C         144.1922  141.4171  164.1801 C.2     1  UNL1        0.1032
     10 N         145.5302  142.0161  163.8630 N.2     1  UNL1       -0.0926
     11 O         146.3785  141.5348  163.7311 O.2     1  UNL1       -0.4092
     12 H         147.1616  142.0106  163.5354 H       1  UNL1        0.3278
     13 C         144.0517  139.9309  164.3278 C.3     1  UNL1        0.0772
     14 C         139.8342  138.7118  165.3159 C.ar    1  UNL1        0.2250
     15 C         139.0263  137.9323  164.3211 C.ar    1  UNL1        0.0593
     16 C         139.6241  137.5591  162.9970 C.ar    1  UNL1        0.0254
     17 C         141.0300  137.9655  162.6676 C.ar    1  UNL1        0.0990
     18 N         141.6278  137.5924  161.3435 N.ar    1  UNL1       -0.2400
     19 C         143.0337  137.9988  161.0141 C.ar    1  UNL1        0.1281
     20 C         143.8417  138.7783  162.0089 C.ar    1  UNL1        0.1570
     21 F         144.7475  138.9897  161.6873 F       1  UNL1       -0.2028
     22 C         143.2438  139.1514  163.3330 C.ar    1  UNL1        0.0318
     23 C         141.8380  138.7450  163.6624 C.ar    1  UNL1        0.1005
     24 N         141.2400  139.1182  164.9865 N.ar    1  UNL1       -0.2104
     25 C         137.8273  138.6867  166.9656 C.3     1  UNL1        0.2542
     26 O         139.2364  139.0849  166.6400 O.3     1  UNL1       -0.4561
     27 N         139.4014  144.9652  164.8580 N.3     1  UNL1       -0.2926
     28 H         139.6159  145.8431  164.3850 H       1  UNL1        0.1236
     29 C         138.0604  144.5189  164.3552 C.3     1  UNL1        0.1152
     30 C         137.9667  143.3994  163.3612 C.ar    1  UNL1        0.0765
     31 C         137.6074  142.0172  163.8200 C.ar    1  UNL1        0.0193
     32 C         137.5137  140.8977  162.8261 C.ar    1  UNL1        0.0411
     33 C         137.7793  141.1604  161.3733 C.ar    1  UNL1        0.1708
     34 C         138.1387  142.5426  160.9146 C.ar    1  UNL1        0.1682
     35 N         138.2323  143.6620  161.9085 N.ar    1  UNL1       -0.2304
     36 N         138.4043  142.8053  159.4618 N.am    1  UNL1       -0.2639
     37 C         138.3106  141.6858  158.4678 C.2     1  UNL1        0.2718
     38 O         138.5762  141.9485  157.0151 O.2     1  UNL1       -0.2707
     39 C         137.9513  140.3036  158.9266 C.3     1  UNL1        0.2898
     40 O         137.6856  140.0409  160.3793 O.3     1  UNL1       -0.4628
     41 H         138.6402  143.7125  159.1607 H       1  UNL1        0.1565
@<TRIPOS>BOND
     1    25    26    1
     2    26    14    1
     3    14    15   ar
     4    15    16   ar
     5    16    17   ar
     6    17    18   ar
     7    18    19   ar
     8    19    20   ar
     9    20    21    1
    10    20    22   ar
    11    22    13    1
    12    13     9    1
    13     9    10    2
    14    10    11    1
    15     9     1    1
    16     1     2    1
    17     2     3    1
    18     3     4    1
    19     4    27    1
    20    27    29    1
    21    29    30    1
    22    30    31   ar
    23    31    32   ar
    24    32    33   ar
    25    33    34   ar
    26    34    35   ar
    27    34    36    1
    28    36    37   am
    29    37    38    2
    30    37    39    1
    31    39    40    1
    32     4     5    1
    33     5     6    1
    34     4     7    1
    35     7     8    1
    36    22    23   ar
    37    23    24   ar
    38    24    14   ar
    39    23    17   ar
    40     6     1    1
    41     8     1    1
    42    35    30   ar
    43    40    33    1
    44    11    12    1
    45    27    28    1
    46    36    41    1
@<TRIPOS>MOLECULE
*****
 41 46 0 0 0
SMALL
GASTEIGER

@<TRIPOS>ATOM
      1 C         141.1059  140.2263  166.7069 C.3     1  UNL1        0.1272
      2 C         142.0029  139.1320  166.2087 C.3     1  UNL1        0.0342
      3 C         143.2320  139.4711  165.4186 C.3     1  UNL1        0.0197
      4 C         143.5642  140.9045  165.1267 C.3     1  UNL1        0.0701
      5 C         142.6672  141.9987  165.6248 C.3     1  UNL1        0.0197
      6 C         141.4381  141.6596  166.4149 C.3     1  UNL1        0.0342
      7 C         142.8798  140.7678  165.5635 C.3     1  UNL1        0.1566
      8 O         141.7684  140.4611  166.2780 O.3     1  UNL1       -0.3518
      9 C         139.8768  139.8872  167.4970 C.2     1  UNL1        0.1032
     10 N         139.9404  139.8279  168.9944 N.2     1  UNL1       -0.0926
     11 O         139.2027  139.6172  169.6107 O.2     1  UNL1       -0.4092
     12 H         139.3531  139.6076  170.5355 H       1  UNL1        0.3278
     13 C         138.5840  139.6074  166.7895 C.3     1  UNL1        0.0772
     14 C         137.9253  142.9086  163.8032 C.ar    1  UNL1        0.2250
     15 C         137.9249  142.6025  162.3347 C.ar    1  UNL1        0.0593
     16 C         138.1440  141.1960  161.8618 C.ar    1  UNL1        0.0254
     17 C         138.3636  140.0956  162.8572 C.ar    1  UNL1        0.0990
     18 N         138.5827  138.6891  162.3842 N.ar    1  UNL1       -0.2400
     19 C         138.8023  137.5886  163.3797 C.ar    1  UNL1        0.1281
     20 C         138.8027  137.8947  164.8481 C.ar    1  UNL1        0.1570
     21 F         138.9558  137.0991  165.4067 F       1  UNL1       -0.2028
     22 C         138.5835  139.3013  165.3211 C.ar    1  UNL1        0.0318
     23 C         138.3640  140.4017  164.3256 C.ar    1  UNL1        0.1005
     24 N         138.1448  141.8082  164.7986 N.ar    1  UNL1       -0.2104
     25 C         138.5088  144.8544  165.4229 C.3     1  UNL1        0.2542
     26 O         137.7062  144.3151  164.2762 O.3     1  UNL1       -0.4561
     27 N         144.7933  141.2436  164.3366 N.3     1  UNL1       -0.2926
     28 H         145.5641  140.7208  164.7523 H       1  UNL1        0.1236
     29 C         144.8342  140.9756  162.8612 C.3     1  UNL1        0.1152
     30 C         144.1048  141.8816  161.9139 C.ar    1  UNL1        0.0765
     31 C         144.5039  141.9336  160.4689 C.ar    1  UNL1        0.0193
     32 C         143.7745  142.8396  159.5216 C.ar    1  UNL1        0.0411
     33 C         142.6461  143.6934  160.0194 C.ar    1  UNL1        0.1708
     34 C         142.2471  143.6414  161.4644 C.ar    1  UNL1        0.1682
     35 N         142.9765  142.7354  162.4116 N.ar    1  UNL1       -0.2304
     36 N         141.1187  144.4952  161.9621 N.am    1  UNL1       -0.2639
     37 C         140.3894  145.4012  161.0148 C.2     1  UNL1        0.2718
     38 O         139.2611  146.2550  161.5126 O.2     1  UNL1       -0.2707
     39 C         140.7884  145.4532  159.5698 C.3     1  UNL1        0.2898
     40 O         141.9168  144.5994  159.0721 O.3     1  UNL1       -0.4628
     41 H         140.8569  144.4610  162.9105 H       1  UNL1        0.1565
@<TRIPOS>BOND
     1    25    26    1
     2    26    14    1
     3    14    15   ar
     4    15    16   ar
     5    16    17   ar
     6    17    18   ar
     7    18    19   ar
     8    19    20   ar
     9    20    21    1
    10    20    22   ar
    11    22    13    1
    12    13     9    1
    13     9    10    2
    14    10    11    1
    15     9     1    1
    16     1     2    1
    17     2     3    1
    18     3     4    1
    19     4    27    1
    20    27    29    1
    21    29    30    1
    22    30    31   ar
    23    31    32   ar
    24    32    33   ar
    25    33    34   ar
    26    34    35   ar
    27    34    36    1
    28    36    37   am
    29    37    38    2
    30    37    39    1
    31    39    40    1
    32     4     5    1
    33     5     6    1
    34     4     7    1
    35     7     8    1
    36    22    23   ar
    37    23    24   ar
    38    24    14   ar
    39    23    17   ar
    40     6     1    1
    41     8     1    1
    42    35    30   ar
    43    40    33    1
    44    11    12    1
    45    27    28    1
    46    36    41    1
@<TRIPOS>MOLECULE
*****
 41 46 0 0 0
SMALL
GASTEIGER

@<TRIPOS>ATOM
      1 C         141.5065  144.5271  162.6793 C.3     1  UNL1        0.1272
      2 C         142.3430  144.6426  163.9191 C.3     1  UNL1        0.0342
      3 C         143.6952  143.9957  163.9745 C.3     1  UNL1        0.0197
      4 C         144.2109  143.2333  162.7901 C.3     1  UNL1        0.0701
      5 C         143.3744  143.1178  161.5504 C.3     1  UNL1        0.0197
      6 C         142.0222  143.7647  161.4950 C.3     1  UNL1        0.0342
      7 C         143.4638  143.5707  162.7127 C.3     1  UNL1        0.1566
      8 O         142.2411  144.1556  162.6627 O.3     1  UNL1       -0.3518
      9 C         140.1543  145.1740  162.6239 C.2     1  UNL1        0.1032
     10 N         139.8728  146.2374  161.6042 N.2     1  UNL1       -0.0926
     11 O         139.0287  146.7270  161.4765 O.2     1  UNL1       -0.4092
     12 H         138.9608  147.3762  160.8042 H       1  UNL1        0.3278
     13 C         139.0835  144.7575  163.5884 C.3     1  UNL1        0.0772
     14 C         140.2978  142.2289  167.1071 C.ar    1  UNL1        0.2250
     15 C         139.8723  140.7924  167.1808 C.ar    1  UNL1        0.0593
     16 C         139.0421  140.1987  166.0816 C.ar    1  UNL1        0.0254
     17 C         138.6373  141.0416  164.9086 C.ar    1  UNL1        0.0990
     18 N         137.8071  140.4480  163.8094 N.ar    1  UNL1       -0.2400
     19 C         137.4023  141.2908  162.6365 C.ar    1  UNL1        0.1281
     20 C         137.8278  142.7273  162.5628 C.ar    1  UNL1        0.1570
     21 F         137.5062  143.1825  161.7516 F       1  UNL1       -0.2028
     22 C         138.6581  143.3210  163.6621 C.ar    1  UNL1        0.0318
     23 C         139.0628  142.4781  164.8350 C.ar    1  UNL1        0.1005
     24 N         139.8931  143.0718  165.9342 N.ar    1  UNL1       -0.2104
     25 C         142.5168  142.3134  168.4559 C.3     1  UNL1        0.2542
     26 O         141.1280  142.8225  168.2063 O.3     1  UNL1       -0.4561
     27 N         145.5631  142.5864  162.8455 N.3     1  UNL1       -0.2926
     28 H         146.1567  143.1928  163.4114 H       1  UNL1        0.1236
     29 C         145.7089  141.1995  163.3982 C.3     1  UNL1        0.1152
     30 C         144.4909  140.3627  163.6554 C.ar    1  UNL1        0.0765
     31 C         144.2000  139.8675  165.0411 C.ar    1  UNL1        0.0193
     32 C         142.9819  139.0307  165.2982 C.ar    1  UNL1        0.0411
     33 C         142.0548  138.6891  164.1696 C.ar    1  UNL1        0.1708
     34 C         142.3456  139.1843  162.7839 C.ar    1  UNL1        0.1682
     35 N         143.5637  140.0211  162.5268 N.ar    1  UNL1       -0.2304
     36 N         141.4185  138.8428  161.6553 N.am    1  UNL1       -0.2639
     37 C         140.2004  138.0060  161.9124 C.2     1  UNL1        0.2718
     38 O         139.2732  137.6644  160.7839 O.2     1  UNL1       -0.2707
     39 C         139.9095  137.5107  163.2982 C.3     1  UNL1        0.2898
     40 O         140.8367  137.8523  164.4267 O.3     1  UNL1       -0.4628
     41 H         141.6094  139.1678  160.7458 H       1  UNL1        0.1565
@<TRIPOS>BOND
     1    25    26    1
     2    26    14    1
     3    14    15   ar
     4    15    16   ar
     5    16    17   ar
     6    17    18   ar
     7    18    19   ar
     8    19    20   ar
     9    20    21    1
    10    20    22   ar
    11    22    13    1
    12    13     9    1
    13     9    10    2
    14    10    11    1
    15     9     1    1
    16     1     2    1
    17     2     3    1
    18     3     4    1
    19     4    27    1
    20    27    29    1
    21    29    30    1
    22    30    31   ar
    23    31    32   ar
    24    32    33   ar
    25    33    34   ar
    26    34    35   ar
    27    34    36    1
    28    36    37   am
    29    37    38    2
    30    37    39    1
    31    39    40    1
    32     4     5    1
    33     5     6    1
    34     4     7    1
    35     7     8    1
    36    22    23   ar
    37    23    24   ar
    38    24    14   ar
    39    23    17   ar
    40     6     1    1
    41     8     1    1
    42    35    30   ar
    43    40    33    1
    44    11    12    1
    45    27    28    1
    46    36    41    1
@<TRIPOS>MOLECULE
*****
 41 46 0 0 0
SMALL
GASTEIGER

@<TRIPOS>ATOM
      1 C         141.9814  138.4971  164.5029 C.3     1  UNL1        0.1272
      2 C         140.5070  138.5676  164.7701 C.3     1  UNL1        0.0342
      3 C         139.5306  138.2917  163.6654 C.3     1  UNL1        0.0197
      4 C         140.0285  137.9453  162.2935 C.3     1  UNL1        0.0701
      5 C         141.5028  137.8749  162.0263 C.3     1  UNL1        0.0197
      6 C         142.4792  138.1507  163.1310 C.3     1  UNL1        0.0342
      7 C         140.6017  138.0884  162.8669 C.3     1  UNL1        0.1566
      8 O         141.4847  138.3379  163.8659 O.3     1  UNL1       -0.3518
      9 C         142.9578  138.7730  165.6077 C.2     1  UNL1        0.1032
     10 N         143.6008  137.6341  166.3421 N.2     1  UNL1       -0.0926
     11 O         144.2510  137.6957  167.0783 O.2     1  UNL1       -0.4092
     12 H         144.5920  136.9153  167.4688 H       1  UNL1        0.3278
     13 C         143.2913  140.1878  165.9779 C.3     1  UNL1        0.0772
     14 C         140.8417  143.8031  164.8922 C.ar    1  UNL1        0.2250
     15 C         141.3350  144.7562  163.8443 C.ar    1  UNL1        0.0593
     16 C         142.6449  144.5042  163.1582 C.ar    1  UNL1        0.0254
     17 C         143.4615  143.2991  163.5201 C.ar    1  UNL1        0.0990
     18 N         144.7713  143.0471  162.8340 N.ar    1  UNL1       -0.2400
     19 C         145.5879  141.8420  163.1959 C.ar    1  UNL1        0.1281
     20 C         145.0946  140.8889  164.2439 C.ar    1  UNL1        0.1570
     21 F         145.7096  140.1365  164.3995 F       1  UNL1       -0.2028
     22 C         143.7847  141.1409  164.9299 C.ar    1  UNL1        0.0318
     23 C         142.9681  142.3460  164.5681 C.ar    1  UNL1        0.1005
     24 N         141.6582  142.5980  165.2541 N.ar    1  UNL1       -0.2104
     25 C         138.2856  144.2510  164.7668 C.3     1  UNL1        0.2542
     26 O         139.5318  144.0551  165.5783 O.3     1  UNL1       -0.4561
     27 N         139.0520  137.6695  161.1887 N.3     1  UNL1       -0.2926
     28 H         138.1307  137.5991  161.6208 H       1  UNL1        0.1236
     29 C         138.9217  138.6316  160.0453 C.3     1  UNL1        0.1152
     30 C         138.9922  140.1088  160.2964 C.ar    1  UNL1        0.0765
     31 C         138.0211  140.7566  161.2384 C.ar    1  UNL1        0.0193
     32 C         138.0916  142.2338  161.4895 C.ar    1  UNL1        0.0411
     33 C         139.1332  143.0631  160.7985 C.ar    1  UNL1        0.1708
     34 C         140.1042  142.4153  159.8565 C.ar    1  UNL1        0.1682
     35 N         140.0337  140.9381  159.6054 N.ar    1  UNL1       -0.2304
     36 N         141.1458  143.2446  159.1655 N.am    1  UNL1       -0.2639
     37 C         141.2162  144.7218  159.4166 C.2     1  UNL1        0.2718
     38 O         142.2577  145.5511  158.7256 O.2     1  UNL1       -0.2707
     39 C         140.2451  145.3696  160.3586 C.3     1  UNL1        0.2898
     40 O         139.2036  144.5403  161.0495 O.3     1  UNL1       -0.4628
     41 H         141.7831  142.8194  158.5472 H       1  UNL1        0.1565
@<TRIPOS>BOND
     1    25    26    1
     2    26    14    1
     3    14    15   ar
     4    15    16   ar
     5    16    17   ar
     6    17    18   ar
     7    18    19   ar
     8    19    20   ar
     9    20    21    1
    10    20    22   ar
    11    22    13    1
    12    13     9    1
    13     9    10    2
    14    10    11    1
    15     9     1    1
    16     1     2    1
    17     2     3    1
    18     3     4    1
    19     4    27    1
    20    27    29    1
    21    29    30    1
    22    30    31   ar
    23    31    32   ar
    24    32    33   ar
    25    33    34   ar
    26    34    35   ar
    27    34    36    1
    28    36    37   am
    29    37    38    2
    30    37    39    1
    31    39    40    1
    32     4     5    1
    33     5     6    1
    34     4     7    1
    35     7     8    1
    36    22    23   ar
    37    23    24   ar
    38    24    14   ar
    39    23    17   ar
    40     6     1    1
    41     8     1    1
    42    35    30   ar
    43    40    33    1
    44    11    12    1
    45    27    28    1
    46    36    41    1
@<TRIPOS>MOLECULE
*****
 41 46 0 0 0
SMALL
GASTEIGER

@<TRIPOS>ATOM
      1 C         139.3645  143.5843  162.6356 C.3     1  UNL1        0.1272
      2 C         139.1949  143.5964  164.1260 C.3     1  UNL1        0.0342
      3 C         138.6424  142.3914  164.8278 C.3     1  UNL1        0.0197
      4 C         138.2595  141.1741  164.0392 C.3     1  UNL1        0.0701
      5 C         138.4291  141.1620  162.5489 C.3     1  UNL1        0.0197
      6 C         138.9816  142.3671  161.8471 C.3     1  UNL1        0.0342
      7 C         138.5581  141.8105  163.6105 C.3     1  UNL1        0.1566
      8 O         139.0577  142.9002  162.9759 O.3     1  UNL1       -0.3518
      9 C         139.9171  144.7894  161.9338 C.2     1  UNL1        0.1032
     10 N         139.0357  145.9746  161.6720 N.2     1  UNL1       -0.0926
     11 O         139.2886  146.8131  161.2233 O.2     1  UNL1       -0.4092
     12 H         138.6548  147.4941  161.1111 H       1  UNL1        0.3278
     13 C         141.3510  144.8093  161.4938 C.3     1  UNL1        0.0772
     14 C         143.0287  140.7683  160.4420 C.ar    1  UNL1        0.2250
     15 C         144.0867  140.1477  161.3054 C.ar    1  UNL1        0.0593
     16 C         144.5856  140.8740  162.5193 C.ar    1  UNL1        0.0254
     17 C         144.0263  142.2210  162.8699 C.ar    1  UNL1        0.0990
     18 N         144.5252  142.9473  164.0838 N.ar    1  UNL1       -0.2400
     19 C         143.9659  144.2943  164.4345 C.ar    1  UNL1        0.1281
     20 C         142.9079  144.9150  163.5711 C.ar    1  UNL1        0.1570
     21 F         142.6156  145.7970  163.8954 F       1  UNL1       -0.2028
     22 C         142.4090  144.1886  162.3572 C.ar    1  UNL1        0.0318
     23 C         142.9683  142.8417  162.0066 C.ar    1  UNL1        0.1005
     24 N         142.4695  142.1153  160.7926 N.ar    1  UNL1       -0.2104
     25 C         142.9900  138.6416  158.9501 C.3     1  UNL1        0.2542
     26 O         142.5299  140.0421  159.2281 O.3     1  UNL1       -0.4561
     27 N         137.7070  139.9690  164.7409 N.3     1  UNL1       -0.2926
     28 H         137.1231  139.4766  164.0649 H       1  UNL1        0.1236
     29 C         138.6385  138.9519  165.3308 C.3     1  UNL1        0.1152
     30 C         139.6936  139.3788  166.3078 C.ar    1  UNL1        0.0765
     31 C         141.1442  139.1976  165.9719 C.ar    1  UNL1        0.0193
     32 C         142.1993  139.6244  166.9489 C.ar    1  UNL1        0.0411
     33 C         141.8037  140.2324  168.2619 C.ar    1  UNL1        0.1708
     34 C         140.3531  140.4136  168.5978 C.ar    1  UNL1        0.1682
     35 N         139.2980  139.9867  167.6208 N.ar    1  UNL1       -0.2304
     36 N         139.9575  141.0216  169.9108 N.am    1  UNL1       -0.2639
     37 C         141.0126  141.4484  170.8879 C.2     1  UNL1        0.2718
     38 O         140.6171  142.0564  172.2008 O.2     1  UNL1       -0.2707
     39 C         142.4633  141.2672  170.5519 C.3     1  UNL1        0.2898
     40 O         142.8588  140.6592  169.2390 O.3     1  UNL1       -0.4628
     41 H         139.0054  141.1405  170.1313 H       1  UNL1        0.1565
@<TRIPOS>BOND
     1    25    26    1
     2    26    14    1
     3    14    15   ar
     4    15    16   ar
     5    16    17   ar
     6    17    18   ar
     7    18    19   ar
     8    19    20   ar
     9    20    21    1
    10    20    22   ar
    11    22    13    1
    12    13     9    1
    13     9    10    2
    14    10    11    1
    15     9     1    1
    16     1     2    1
    17     2     3    1
    18     3     4    1
    19     4    27    1
    20    27    29    1
    21    29    30    1
    22    30    31   ar
    23    31    32   ar
    24    32    33   ar
    25    33    34   ar
    26    34    35   ar
    27    34    36    1
    28    36    37   am
    29    37    38    2
    30    37    39    1
    31    39    40    1
    32     4     5    1
    33     5     6    1
    34     4     7    1
    35     7     8    1
    36    22    23   ar
    37    23    24   ar
    38    24    14   ar
    39    23    17   ar
    40     6     1    1
    41     8     1    1
    42    35    30   ar
    43    40    33    1
    44    11    12    1
    45    27    28    1
    46    36    41    1
@<TRIPOS>MOLECULE
*****
 41 46 0 0 0
SMALL
GASTEIGER

@<TRIPOS>ATOM
      1 C         139.3041  137.9652  164.8077 C.3     1  UNL1        0.1272
      2 C         138.8268  138.1148  163.3935 C.3     1  UNL1        0.0342
      3 C         139.7714  137.8731  162.2536 C.3     1  UNL1        0.0197
      4 C         141.1933  137.4817  162.5279 C.3     1  UNL1        0.0701
      5 C         141.6705  137.3321  163.9420 C.3     1  UNL1        0.0197
      6 C         140.7260  137.5739  165.0819 C.3     1  UNL1        0.0342
      7 C         140.7126  137.6037  163.1851 C.3     1  UNL1        0.1566
      8 O         139.8585  137.8222  164.2159 O.3     1  UNL1       -0.3518
      9 C         138.3596  138.2069  165.9476 C.2     1  UNL1        0.1032
     10 N         137.6111  137.0590  166.5577 N.2     1  UNL1       -0.0926
     11 O         136.9705  137.0993  167.3037 O.2     1  UNL1       -0.4092
     12 H         136.5567  136.3158  167.6086 H       1  UNL1        0.3278
     13 C         138.1634  139.5965  166.4773 C.3     1  UNL1        0.0772
     14 C         139.5536  142.6031  163.4314 C.ar    1  UNL1        0.2250
     15 C         140.7429  143.4698  163.7217 C.ar    1  UNL1        0.0593
     16 C         141.4689  143.3344  165.0274 C.ar    1  UNL1        0.0254
     17 C         141.0055  142.3322  166.0427 C.ar    1  UNL1        0.0990
     18 N         141.7314  142.1967  167.3483 N.ar    1  UNL1       -0.2400
     19 C         141.2680  141.1945  168.3637 C.ar    1  UNL1        0.1281
     20 C         140.0787  140.3277  168.0733 C.ar    1  UNL1        0.1570
     21 F         139.8654  139.7089  168.8082 F       1  UNL1       -0.2028
     22 C         139.3528  140.4632  166.7677 C.ar    1  UNL1        0.0318
     23 C         139.8162  141.4654  165.7524 C.ar    1  UNL1        0.1005
     24 N         139.0902  141.6009  164.4467 N.ar    1  UNL1       -0.2104
     25 C         137.9303  141.6353  161.6486 C.3     1  UNL1        0.2542
     26 O         138.8277  142.7386  162.1258 O.3     1  UNL1       -0.4561
     27 N         142.1378  137.2400  161.3880 N.3     1  UNL1       -0.2926
     28 H         141.6003  137.3607  160.5295 H       1  UNL1        0.1236
     29 C         143.3733  138.0790  161.2469 C.3     1  UNL1        0.1152
     30 C         143.2616  139.5734  161.1818 C.ar    1  UNL1        0.0765
     31 C         144.3118  140.4326  161.8215 C.ar    1  UNL1        0.0193
     32 C         144.2001  141.9270  161.7564 C.ar    1  UNL1        0.0411
     33 C         143.0382  142.5623  161.0517 C.ar    1  UNL1        0.1708
     34 C         141.9882  141.7031  160.4121 C.ar    1  UNL1        0.1682
     35 N         142.0998  140.2087  160.4771 N.ar    1  UNL1       -0.2304
     36 N         140.8263  142.3384  159.7073 N.am    1  UNL1       -0.2639
     37 C         140.7146  143.8328  159.6422 C.2     1  UNL1        0.2718
     38 O         139.5529  144.4681  158.9375 O.2     1  UNL1       -0.2707
     39 C         141.7648  144.6920  160.2819 C.3     1  UNL1        0.2898
     40 O         142.9266  144.0567  160.9866 O.3     1  UNL1       -0.4628
     41 H         140.1371  141.7745  159.2875 H       1  UNL1        0.1565
@<TRIPOS>BOND
     1    25    26    1
     2    26    14    1
     3    14    15   ar
     4    15    16   ar
     5    16    17   ar
     6    17    18   ar
     7    18    19   ar
     8    19    20   ar
     9    20    21    1
    10    20    22   ar
    11    22    13    1
    12    13     9    1
    13     9    10    2
    14    10    11    1
    15     9     1    1
    16     1     2    1
    17     2     3    1
    18     3     4    1
    19     4    27    1
    20    27    29    1
    21    29    30    1
    22    30    31   ar
    23    31    32   ar
    24    32    33   ar
    25    33    34   ar
    26    34    35   ar
    27    34    36    1
    28    36    37   am
    29    37    38    2
    30    37    39    1
    31    39    40    1
    32     4     5    1
    33     5     6    1
    34     4     7    1
    35     7     8    1
    36    22    23   ar
    37    23    24   ar
    38    24    14   ar
    39    23    17   ar
    40     6     1    1
    41     8     1    1
    42    35    30   ar
    43    40    33    1
    44    11    12    1
    45    27    28    1
    46    36    41    1
