@<TRIPOS>MOLECULE
*****
 37 42 0 0 0
SMALL
GASTEIGER

@<TRIPOS>ATOM
      1 C         140.7626  144.0313  158.4631 C.3     1  UNL1        0.0666
      2 S         139.7136  142.9610  158.5271 S.3     1  UNL1       -0.0756
      3 C         139.7792  140.5952  161.6035 C.ar    1  UNL1        0.1669
      4 N         140.2740  139.6797  160.5232 N.ar    1  UNL1       -0.1282
      5 N         140.3097  140.4545  159.2393 N.ar    1  UNL1       -0.1221
      6 C         139.8369  141.8489  159.5260 C.ar    1  UNL1        0.1932
      7 N         139.5090  141.9358  160.9873 N.ar    1  UNL1       -0.2884
      8 C         139.0003  143.1501  161.7060 C.3     1  UNL1        0.1340
      9 C         144.2265  138.2154  166.2735 C.3     1  UNL1        0.0521
     10 C         143.0669  138.7200  165.4668 C.ar    1  UNL1        0.0593
     11 C         143.2580  139.0816  164.0236 C.ar    1  UNL1        0.0147
     12 C         142.0984  139.5861  163.2169 C.ar    1  UNL1        0.0028
     13 C         140.7476  139.7290  163.8533 C.ar    1  UNL1        0.0206
     14 C         139.5880  140.2335  163.0466 C.ar    1  UNL1        0.0374
     15 C         138.2373  140.3764  163.6831 C.ar    1  UNL1        0.0031
     16 C         138.0461  140.0147  165.1262 C.ar    1  UNL1        0.0016
     17 C         139.2057  139.5102  165.9330 C.ar    1  UNL1        0.0191
     18 C         140.5565  139.3673  165.2965 C.ar    1  UNL1        0.0810
     19 N         141.7161  138.8628  166.1032 N.ar    1  UNL1       -0.2497
     20 C         141.9777  143.9437  159.3382 C.3     1  UNL1        0.0294
     21 C         141.9502  144.5260  160.7203 C.3     1  UNL1        0.0730
     22 N         142.7497  143.8895  161.8184 N.3     1  UNL1       -0.2724
     23 C         144.1837  143.4587  161.7289 C.3     1  UNL1        0.0724
     24 C         144.5758  142.8750  163.0539 C.3     1  UNL1        0.0214
     25 C         144.6724  142.3588  164.4590 C.3     1  UNL1        0.0072
     26 C         143.3842  142.9451  163.9622 C.3     1  UNL1        0.0350
     27 C         142.2555  143.5720  163.1986 C.3     1  UNL1        0.0761
     28 C         142.6207  142.7502  165.2385 C.ar    1  UNL1       -0.0215
     29 C         143.3124  142.1974  166.4493 C.ar    1  UNL1       -0.0046
     30 C         142.5489  142.0026  167.7257 C.ar    1  UNL1       -0.0046
     31 C         141.0937  142.3605  167.7913 C.ar    1  UNL1       -0.0228
     32 C         140.4021  142.9132  166.5806 C.ar    1  UNL1       -0.0046
     33 C         141.1655  143.1081  165.3042 C.ar    1  UNL1       -0.0046
     34 C         140.3303  142.1656  169.0677 C.3     1  UNL1        0.0189
     35 C         140.2751  140.6891  168.8093 C.3     1  UNL1        0.0044
     36 C         140.3854  143.6421  169.3261 C.3     1  UNL1        0.0044
     37 C         139.5668  141.9707  170.3441 C.3     1  UNL1        0.0044
@<TRIPOS>BOND
     1     9    10    1
     2    10    11   ar
     3    11    12   ar
     4    12    13   ar
     5    13    14   ar
     6    14     3    1
     7     3     4   ar
     8     4     5   ar
     9     5     6   ar
    10     6     2    1
    11     2     1    1
    12     1    20    1
    13    20    21    1
    14    21    22    1
    15    22    23    1
    16    23    24    1
    17    24    25    1
    18    25    26    1
    19    26    28    1
    20    28    29   ar
    21    29    30   ar
    22    30    31   ar
    23    31    34    1
    24    34    35    1
    25    34    36    1
    26    34    37    1
    27    31    32   ar
    28    32    33   ar
    29    26    27    1
    30     6     7   ar
    31     7     8    1
    32    14    15   ar
    33    15    16   ar
    34    16    17   ar
    35    17    18   ar
    36    18    19   ar
    37    19    10   ar
    38    18    13   ar
    39     7     3   ar
    40    27    22    1
    41    26    24    1
    42    33    28   ar
@<TRIPOS>MOLECULE
*****
 37 42 0 0 0
SMALL
GASTEIGER

@<TRIPOS>ATOM
      1 C         138.9984  139.8630  157.4070 C.3     1  UNL1        0.0666
      2 S         138.0279  140.9053  157.8780 S.3     1  UNL1       -0.0756
      3 C         138.9162  143.0013  161.0218 C.ar    1  UNL1        0.1669
      4 N         139.2944  143.9509  159.9239 N.ar    1  UNL1       -0.1282
      5 N         139.0077  143.2814  158.6127 N.ar    1  UNL1       -0.1221
      6 C         138.4523  141.9179  158.9001 C.ar    1  UNL1        0.1932
      7 N         138.3958  141.7448  160.3890 N.ar    1  UNL1       -0.2884
      8 C         137.9050  140.5288  161.1173 C.3     1  UNL1        0.1340
      9 C         144.3669  142.7544  165.2026 C.3     1  UNL1        0.0521
     10 C         143.0345  142.8814  164.5255 C.ar    1  UNL1        0.0593
     11 C         142.9135  142.6204  163.0533 C.ar    1  UNL1        0.0147
     12 C         141.5811  142.7473  162.3762 C.ar    1  UNL1        0.0028
     13 C         140.3697  143.1353  163.1711 C.ar    1  UNL1        0.0206
     14 C         139.0373  143.2623  162.4940 C.ar    1  UNL1        0.0374
     15 C         137.8259  143.6503  163.2889 C.ar    1  UNL1        0.0031
     16 C         137.9469  143.9114  164.7611 C.ar    1  UNL1        0.0016
     17 C         139.2793  143.7844  165.4383 C.ar    1  UNL1        0.0191
     18 C         140.4907  143.3964  164.6432 C.ar    1  UNL1        0.0810
     19 N         141.8231  143.2694  165.3204 N.ar    1  UNL1       -0.2497
     20 C         140.3047  139.6777  158.1204 C.3     1  UNL1        0.0294
     21 C         140.4808  138.5370  159.0785 C.3     1  UNL1        0.0730
     22 N         141.4831  138.6388  160.1899 N.3     1  UNL1       -0.2724
     23 C         142.9665  138.4590  160.0584 C.3     1  UNL1        0.0724
     24 C         143.5782  138.6474  161.4150 C.3     1  UNL1        0.0214
     25 C         143.8936  138.8837  162.8624 C.3     1  UNL1        0.0072
     26 C         142.4729  138.9436  162.3848 C.3     1  UNL1        0.0350
     27 C         141.1781  138.9383  161.6276 C.3     1  UNL1        0.0761
     28 C         141.8708  139.2557  163.7227 C.ar    1  UNL1       -0.0215
     29 C         140.4077  139.5675  163.8325 C.ar    1  UNL1       -0.0046
     30 C         139.8056  139.8796  165.1704 C.ar    1  UNL1       -0.0046
     31 C         140.6666  139.8798  166.3987 C.ar    1  UNL1       -0.0228
     32 C         142.1297  139.5680  166.2890 C.ar    1  UNL1       -0.0046
     33 C         142.7318  139.2559  164.9510 C.ar    1  UNL1       -0.0046
     34 C         140.0645  140.1918  167.7367 C.3     1  UNL1        0.0189
     35 C         141.3067  140.9395  168.1213 C.3     1  UNL1        0.0044
     36 C         138.8223  139.4442  167.3520 C.3     1  UNL1        0.0044
     37 C         139.4624  140.5039  169.0746 C.3     1  UNL1        0.0044
@<TRIPOS>BOND
     1     9    10    1
     2    10    11   ar
     3    11    12   ar
     4    12    13   ar
     5    13    14   ar
     6    14     3    1
     7     3     4   ar
     8     4     5   ar
     9     5     6   ar
    10     6     2    1
    11     2     1    1
    12     1    20    1
    13    20    21    1
    14    21    22    1
    15    22    23    1
    16    23    24    1
    17    24    25    1
    18    25    26    1
    19    26    28    1
    20    28    29   ar
    21    29    30   ar
    22    30    31   ar
    23    31    34    1
    24    34    35    1
    25    34    36    1
    26    34    37    1
    27    31    32   ar
    28    32    33   ar
    29    26    27    1
    30     6     7   ar
    31     7     8    1
    32    14    15   ar
    33    15    16   ar
    34    16    17   ar
    35    17    18   ar
    36    18    19   ar
    37    19    10   ar
    38    18    13   ar
    39     7     3   ar
    40    27    22    1
    41    26    24    1
    42    33    28   ar
@<TRIPOS>MOLECULE
*****
 37 42 0 0 0
SMALL
GASTEIGER

@<TRIPOS>ATOM
      1 C         142.9978  142.9954  157.8470 C.3     1  UNL1        0.0666
      2 S         144.1945  142.1566  158.1850 S.3     1  UNL1       -0.0756
      3 C         143.8990  139.8381  161.2839 C.ar    1  UNL1        0.1669
      4 N         143.8747  138.8355  160.1684 N.ar    1  UNL1       -0.1282
      5 N         143.9825  139.5820  158.8718 N.ar    1  UNL1       -0.1221
      6 C         144.0733  141.0459  159.1859 C.ar    1  UNL1        0.1932
      7 N         144.0217  141.2042  160.6767 N.ar    1  UNL1       -0.2884
      8 C         144.0823  142.5009  161.4282 C.3     1  UNL1        0.1340
      9 C         138.6439  137.6253  165.1228 C.3     1  UNL1        0.0521
     10 C         139.9367  138.1012  164.5294 C.ar    1  UNL1        0.0593
     11 C         140.0205  138.4104  163.0641 C.ar    1  UNL1        0.0147
     12 C         141.3133  138.8863  162.4707 C.ar    1  UNL1        0.0028
     13 C         142.5224  139.0530  163.3427 C.ar    1  UNL1        0.0206
     14 C         143.8152  139.5289  162.7493 C.ar    1  UNL1        0.0374
     15 C         145.0243  139.6955  163.6212 C.ar    1  UNL1        0.0031
     16 C         144.9405  139.3863  165.0867 C.ar    1  UNL1        0.0016
     17 C         143.6477  138.9104  165.6801 C.ar    1  UNL1        0.0191
     18 C         142.4386  138.7437  164.8080 C.ar    1  UNL1        0.0810
     19 N         141.1458  138.2678  165.4014 N.ar    1  UNL1       -0.2497
     20 C         141.6296  142.5591  158.2801 C.3     1  UNL1        0.0294
     21 C         140.7660  143.4862  159.0829 C.3     1  UNL1        0.0730
     22 N         139.9370  142.9497  160.2122 N.3     1  UNL1       -0.2724
     23 C         138.5031  142.5180  160.1255 C.3     1  UNL1        0.0724
     24 C         138.0763  142.0522  161.4860 C.3     1  UNL1        0.0214
     25 C         137.9435  141.6595  162.9276 C.3     1  UNL1        0.0072
     26 C         139.2465  142.1960  162.4134 C.3     1  UNL1        0.0350
     27 C         140.3964  142.7508  161.6261 C.3     1  UNL1        0.0761
     28 C         139.9783  142.1093  163.7199 C.ar    1  UNL1       -0.0215
     29 C         139.2599  141.6465  164.9527 C.ar    1  UNL1       -0.0046
     30 C         139.9917  141.5597  166.2591 C.ar    1  UNL1       -0.0046
     31 C         141.4420  141.9357  166.3329 C.ar    1  UNL1       -0.0228
     32 C         142.1603  142.3985  165.1001 C.ar    1  UNL1       -0.0046
     33 C         141.4285  142.4853  163.7936 C.ar    1  UNL1       -0.0046
     34 C         142.1738  141.8490  167.6394 C.3     1  UNL1        0.0189
     35 C         140.9477  141.2783  168.2883 C.3     1  UNL1        0.0044
     36 C         143.3999  142.4196  166.9905 C.3     1  UNL1        0.0044
     37 C         142.9056  141.7622  168.9459 C.3     1  UNL1        0.0044
@<TRIPOS>BOND
     1     9    10    1
     2    10    11   ar
     3    11    12   ar
     4    12    13   ar
     5    13    14   ar
     6    14     3    1
     7     3     4   ar
     8     4     5   ar
     9     5     6   ar
    10     6     2    1
    11     2     1    1
    12     1    20    1
    13    20    21    1
    14    21    22    1
    15    22    23    1
    16    23    24    1
    17    24    25    1
    18    25    26    1
    19    26    28    1
    20    28    29   ar
    21    29    30   ar
    22    30    31   ar
    23    31    34    1
    24    34    35    1
    25    34    36    1
    26    34    37    1
    27    31    32   ar
    28    32    33   ar
    29    26    27    1
    30     6     7   ar
    31     7     8    1
    32    14    15   ar
    33    15    16   ar
    34    16    17   ar
    35    17    18   ar
    36    18    19   ar
    37    19    10   ar
    38    18    13   ar
    39     7     3   ar
    40    27    22    1
    41    26    24    1
    42    33    28   ar
@<TRIPOS>MOLECULE
*****
 37 42 0 0 0
SMALL
GASTEIGER

@<TRIPOS>ATOM
      1 C         142.4131  142.5317  158.8725 C.3     1  UNL1        0.0666
      2 S         143.7254  142.7611  159.5619 S.3     1  UNL1       -0.0756
      3 C         143.7583  141.6894  163.2923 C.ar    1  UNL1        0.1669
      4 N         144.1946  143.1207  163.3980 N.ar    1  UNL1       -0.1282
      5 N         144.2354  143.6963  162.0135 N.ar    1  UNL1       -0.1221
      6 C         143.8243  142.6208  161.0520 C.ar    1  UNL1        0.1932
      7 N         143.5294  141.3804  161.8424 N.ar    1  UNL1       -0.2884
      8 C         143.0840  140.0626  161.2814 C.3     1  UNL1        0.1340
      9 C         139.9857  142.1736  169.0180 C.3     1  UNL1        0.0521
     10 C         140.8847  141.8139  167.8724 C.ar    1  UNL1        0.0593
     11 C         141.0611  142.7685  166.7290 C.ar    1  UNL1        0.0147
     12 C         141.9602  142.4088  165.5834 C.ar    1  UNL1        0.0028
     13 C         142.6829  141.0944  165.5813 C.ar    1  UNL1        0.0206
     14 C         143.5819  140.7347  164.4357 C.ar    1  UNL1        0.0374
     15 C         144.3046  139.4203  164.4336 C.ar    1  UNL1        0.0031
     16 C         144.1282  138.4655  165.5770 C.ar    1  UNL1        0.0016
     17 C         143.2291  138.8252  166.7226 C.ar    1  UNL1        0.0191
     18 C         142.5064  140.1397  166.7247 C.ar    1  UNL1        0.0810
     19 N         141.6074  140.4995  167.8703 N.ar    1  UNL1       -0.2497
     20 C         141.5053  143.6903  158.5833 C.3     1  UNL1        0.0294
     21 C         141.4689  144.8653  159.5149 C.3     1  UNL1        0.0730
     22 N         140.6080  144.8226  160.7427 N.3     1  UNL1       -0.2724
     23 C         139.9243  145.9950  161.3812 C.3     1  UNL1        0.0724
     24 C         139.1735  145.4970  162.5805 C.3     1  UNL1        0.0214
     25 C         138.5379  144.7199  163.6950 C.3     1  UNL1        0.0072
     26 C         139.3932  144.0168  162.6831 C.3     1  UNL1        0.0350
     27 C         140.2798  143.5999  161.5473 C.3     1  UNL1        0.0761
     28 C         139.2439  142.6471  163.2762 C.ar    1  UNL1       -0.0215
     29 C         140.0189  141.4953  162.7084 C.ar    1  UNL1       -0.0046
     30 C         139.8696  140.1257  163.3014 C.ar    1  UNL1       -0.0046
     31 C         138.9450  139.9078  164.4624 C.ar    1  UNL1       -0.0228
     32 C         138.1699  141.0596  165.0302 C.ar    1  UNL1       -0.0046
     33 C         138.3193  142.4293  164.4371 C.ar    1  UNL1       -0.0046
     34 C         138.7957  138.5382  165.0555 C.3     1  UNL1        0.0189
     35 C         139.0524  137.9274  163.7097 C.3     1  UNL1        0.0044
     36 C         138.5389  139.1489  166.4012 C.3     1  UNL1        0.0044
     37 C         138.6463  137.1685  165.6485 C.3     1  UNL1        0.0044
@<TRIPOS>BOND
     1     9    10    1
     2    10    11   ar
     3    11    12   ar
     4    12    13   ar
     5    13    14   ar
     6    14     3    1
     7     3     4   ar
     8     4     5   ar
     9     5     6   ar
    10     6     2    1
    11     2     1    1
    12     1    20    1
    13    20    21    1
    14    21    22    1
    15    22    23    1
    16    23    24    1
    17    24    25    1
    18    25    26    1
    19    26    28    1
    20    28    29   ar
    21    29    30   ar
    22    30    31   ar
    23    31    34    1
    24    34    35    1
    25    34    36    1
    26    34    37    1
    27    31    32   ar
    28    32    33   ar
    29    26    27    1
    30     6     7   ar
    31     7     8    1
    32    14    15   ar
    33    15    16   ar
    34    16    17   ar
    35    17    18   ar
    36    18    19   ar
    37    19    10   ar
    38    18    13   ar
    39     7     3   ar
    40    27    22    1
    41    26    24    1
    42    33    28   ar
@<TRIPOS>MOLECULE
*****
 37 42 0 0 0
SMALL
GASTEIGER

@<TRIPOS>ATOM
      1 C         142.8037  139.1838  157.4890 C.3     1  UNL1        0.0666
      2 S         141.7542  138.1641  157.8189 S.3     1  UNL1       -0.0756
      3 C         139.4825  138.8575  160.8888 C.ar    1  UNL1        0.1669
      4 N         138.5367  139.1387  159.7588 N.ar    1  UNL1       -0.1282
      5 N         139.2726  138.9132  158.4714 N.ar    1  UNL1       -0.1221
      6 C         140.6732  138.4926  158.8055 C.ar    1  UNL1        0.1932
      7 N         140.8029  138.4582  160.2996 N.ar    1  UNL1       -0.2884
      8 C         142.0363  138.0893  161.0692 C.3     1  UNL1        0.1340
      9 C         137.8158  144.2814  164.7688 C.3     1  UNL1        0.0521
     10 C         138.1528  142.9505  164.1643 C.ar    1  UNL1        0.0593
     11 C         138.4715  142.8500  162.7021 C.ar    1  UNL1        0.0147
     12 C         138.8085  141.5192  162.0976 C.ar    1  UNL1        0.0028
     13 C         138.8268  140.2889  162.9555 C.ar    1  UNL1        0.0206
     14 C         139.1637  138.9580  162.3510 C.ar    1  UNL1        0.0374
     15 C         139.1820  137.7277  163.2089 C.ar    1  UNL1        0.0031
     16 C         138.8633  137.8282  164.6712 C.ar    1  UNL1        0.0016
     17 C         138.5263  139.1590  165.2757 C.ar    1  UNL1        0.0191
     18 C         138.5080  140.3894  164.4177 C.ar    1  UNL1        0.0810
     19 N         138.1710  141.7202  165.0222 N.ar    1  UNL1       -0.2497
     20 C         142.7224  140.5610  158.0777 C.3     1  UNL1        0.0294
     21 C         143.5832  140.9274  159.2502 C.3     1  UNL1        0.0730
     22 N         143.0727  141.8862  160.2849 N.3     1  UNL1       -0.2724
     23 C         142.7732  143.3399  160.0682 C.3     1  UNL1        0.0724
     24 C         142.2876  143.9117  161.3671 C.3     1  UNL1        0.0214
     25 C         141.8453  144.1918  162.7728 C.3     1  UNL1        0.0072
     26 C         142.2870  142.8114  162.3866 C.3     1  UNL1        0.0350
     27 C         142.7723  141.5595  161.7177 C.3     1  UNL1        0.0761
     28 C         142.0789  142.1961  163.7386 C.ar    1  UNL1       -0.0215
     29 C         141.6528  143.0518  164.8945 C.ar    1  UNL1       -0.0046
     30 C         141.4446  142.4365  166.2466 C.ar    1  UNL1       -0.0046
     31 C         141.6626  140.9655  166.4428 C.ar    1  UNL1       -0.0228
     32 C         142.0888  140.1098  165.2869 C.ar    1  UNL1       -0.0046
     33 C         142.2969  140.7250  163.9348 C.ar    1  UNL1       -0.0046
     34 C         141.4545  140.3502  167.7949 C.3     1  UNL1        0.0189
     35 C         140.2968  141.2729  168.0365 C.3     1  UNL1        0.0044
     36 C         142.6122  139.4275  167.5532 C.3     1  UNL1        0.0044
     37 C         141.2464  139.7349  169.1469 C.3     1  UNL1        0.0044
@<TRIPOS>BOND
     1     9    10    1
     2    10    11   ar
     3    11    12   ar
     4    12    13   ar
     5    13    14   ar
     6    14     3    1
     7     3     4   ar
     8     4     5   ar
     9     5     6   ar
    10     6     2    1
    11     2     1    1
    12     1    20    1
    13    20    21    1
    14    21    22    1
    15    22    23    1
    16    23    24    1
    17    24    25    1
    18    25    26    1
    19    26    28    1
    20    28    29   ar
    21    29    30   ar
    22    30    31   ar
    23    31    34    1
    24    34    35    1
    25    34    36    1
    26    34    37    1
    27    31    32   ar
    28    32    33   ar
    29    26    27    1
    30     6     7   ar
    31     7     8    1
    32    14    15   ar
    33    15    16   ar
    34    16    17   ar
    35    17    18   ar
    36    18    19   ar
    37    19    10   ar
    38    18    13   ar
    39     7     3   ar
    40    27    22    1
    41    26    24    1
    42    33    28   ar
@<TRIPOS>MOLECULE
*****
 37 42 0 0 0
SMALL
GASTEIGER

@<TRIPOS>ATOM
      1 C         140.0226  143.6766  157.4062 C.3     1  UNL1        0.0666
      2 S         140.9166  144.6417  158.1269 S.3     1  UNL1       -0.0756
      3 C         143.0462  143.5236  161.1733 C.ar    1  UNL1        0.1669
      4 N         143.9638  143.1816  160.0369 N.ar    1  UNL1       -0.1282
      5 N         143.2777  143.5588  158.7575 N.ar    1  UNL1       -0.1221
      6 C         141.9361  144.1339  159.1030 C.ar    1  UNL1        0.1932
      7 N         141.7930  144.1122  160.5961 N.ar    1  UNL1       -0.2884
      8 C         140.6053  144.5943  161.3751 C.3     1  UNL1        0.1340
      9 C         142.2428  137.9852  165.1646 C.3     1  UNL1        0.0521
     10 C         142.5150  139.3174  164.5312 C.ar    1  UNL1        0.0593
     11 C         142.2296  139.5271  163.0737 C.ar    1  UNL1        0.0147
     12 C         142.5018  140.8593  162.4402 C.ar    1  UNL1        0.0028
     13 C         143.0595  141.9817  163.2643 C.ar    1  UNL1        0.0206
     14 C         143.3317  143.3138  162.6308 C.ar    1  UNL1        0.0374
     15 C         143.8893  144.4362  163.4549 C.ar    1  UNL1        0.0031
     16 C         144.1749  144.2265  164.9125 C.ar    1  UNL1        0.0016
     17 C         143.9027  142.8943  165.5460 C.ar    1  UNL1        0.0191
     18 C         143.3449  141.7719  164.7218 C.ar    1  UNL1        0.0810
     19 N         143.0727  140.4398  165.3553 N.ar    1  UNL1       -0.2497
     20 C         139.5561  142.4285  158.0951 C.3     1  UNL1        0.0294
     21 C         138.5538  142.5159  159.2077 C.3     1  UNL1        0.0730
     22 N         138.4064  141.3792  160.1754 N.3     1  UNL1       -0.2724
     23 C         137.9031  140.0042  159.8501 C.3     1  UNL1        0.0724
     24 C         137.9221  139.1932  161.1119 C.3     1  UNL1        0.0214
     25 C         138.0519  138.6458  162.5024 C.3     1  UNL1        0.0072
     26 C         138.4371  140.0671  162.2169 C.3     1  UNL1        0.0350
     27 C         138.7365  141.4181  161.6381 C.3     1  UNL1        0.0761
     28 C         138.8477  140.4031  163.6199 C.ar    1  UNL1       -0.0215
     29 C         138.7101  139.3792  164.7073 C.ar    1  UNL1       -0.0046
     30 C         139.1207  139.7152  166.1103 C.ar    1  UNL1       -0.0046
     31 C         139.6688  141.0753  166.4260 C.ar    1  UNL1       -0.0228
     32 C         139.8063  142.0993  165.3386 C.ar    1  UNL1       -0.0046
     33 C         139.3958  141.7633  163.9356 C.ar    1  UNL1       -0.0046
     34 C         140.0794  141.4114  167.8290 C.3     1  UNL1        0.0189
     35 C         139.6469  140.0484  168.2820 C.3     1  UNL1        0.0044
     36 C         140.5118  142.7744  167.3760 C.3     1  UNL1        0.0044
     37 C         140.4899  141.7474  169.2320 C.3     1  UNL1        0.0044
@<TRIPOS>BOND
     1     9    10    1
     2    10    11   ar
     3    11    12   ar
     4    12    13   ar
     5    13    14   ar
     6    14     3    1
     7     3     4   ar
     8     4     5   ar
     9     5     6   ar
    10     6     2    1
    11     2     1    1
    12     1    20    1
    13    20    21    1
    14    21    22    1
    15    22    23    1
    16    23    24    1
    17    24    25    1
    18    25    26    1
    19    26    28    1
    20    28    29   ar
    21    29    30   ar
    22    30    31   ar
    23    31    34    1
    24    34    35    1
    25    34    36    1
    26    34    37    1
    27    31    32   ar
    28    32    33   ar
    29    26    27    1
    30     6     7   ar
    31     7     8    1
    32    14    15   ar
    33    15    16   ar
    34    16    17   ar
    35    17    18   ar
    36    18    19   ar
    37    19    10   ar
    38    18    13   ar
    39     7     3   ar
    40    27    22    1
    41    26    24    1
    42    33    28   ar
@<TRIPOS>MOLECULE
*****
 37 42 0 0 0
SMALL
GASTEIGER

@<TRIPOS>ATOM
      1 C         139.1982  140.1130  157.2074 C.3     1  UNL1        0.0666
      2 S         139.7787  138.8006  157.6439 S.3     1  UNL1       -0.0756
      3 C         141.7596  138.6821  160.9797 C.ar    1  UNL1        0.1669
      4 N         142.8773  138.6995  159.9793 N.ar    1  UNL1       -0.1282
      5 N         142.2713  138.7460  158.6079 N.ar    1  UNL1       -0.1221
      6 C         140.7790  138.7573  158.7607 C.ar    1  UNL1        0.1932
      7 N         140.4629  138.7178  160.2266 N.ar    1  UNL1       -0.2884
      8 C         139.0909  138.7147  160.8328 C.3     1  UNL1        0.1340
      9 C         144.4943  143.2160  165.3632 C.3     1  UNL1        0.0521
     10 C         143.8487  142.0712  164.6402 C.ar    1  UNL1        0.0593
     11 C         143.6963  142.1164  163.1487 C.ar    1  UNL1        0.0147
     12 C         143.0507  140.9717  162.4257 C.ar    1  UNL1        0.0028
     13 C         142.5576  139.7817  163.1942 C.ar    1  UNL1        0.0206
     14 C         141.9121  138.6369  162.4712 C.ar    1  UNL1        0.0374
     15 C         141.4189  137.4469  163.2397 C.ar    1  UNL1        0.0031
     16 C         141.5713  137.4016  164.7313 C.ar    1  UNL1        0.0016
     17 C         142.2169  138.5464  165.4543 C.ar    1  UNL1        0.0191
     18 C         142.7100  139.7364  164.6857 C.ar    1  UNL1        0.0810
     19 N         143.3556  140.8812  165.4087 N.ar    1  UNL1       -0.2497
     20 C         138.0787  140.7348  157.9885 C.3     1  UNL1        0.0294
     21 C         138.0449  142.2196  158.1982 C.3     1  UNL1        0.0730
     22 N         138.8957  142.8464  159.2629 N.3     1  UNL1       -0.2724
     23 C         139.8011  144.0290  159.0852 C.3     1  UNL1        0.0724
     24 C         140.4554  144.3140  160.4046 C.3     1  UNL1        0.0214
     25 C         140.9416  144.3536  161.8231 C.3     1  UNL1        0.0072
     26 C         139.9543  143.3076  161.3976 C.3     1  UNL1        0.0350
     27 C         138.9903  142.4006  160.6919 C.3     1  UNL1        0.0761
     28 C         139.8425  142.6431  162.7377 C.ar    1  UNL1       -0.0215
     29 C         140.3540  143.3382  163.9645 C.ar    1  UNL1       -0.0046
     30 C         140.2422  142.6737  165.3046 C.ar    1  UNL1       -0.0046
     31 C         139.6189  141.3140  165.4179 C.ar    1  UNL1       -0.0228
     32 C         139.1074  140.6190  164.1911 C.ar    1  UNL1       -0.0046
     33 C         139.2192  141.2835  162.8510 C.ar    1  UNL1       -0.0046
     34 C         139.5071  140.6495  166.7581 C.3     1  UNL1        0.0189
     35 C         140.3717  141.7175  167.3597 C.3     1  UNL1        0.0044
     36 C         138.6425  139.5816  166.1564 C.3     1  UNL1        0.0044
     37 C         139.3953  139.9850  168.0982 C.3     1  UNL1        0.0044
@<TRIPOS>BOND
     1     9    10    1
     2    10    11   ar
     3    11    12   ar
     4    12    13   ar
     5    13    14   ar
     6    14     3    1
     7     3     4   ar
     8     4     5   ar
     9     5     6   ar
    10     6     2    1
    11     2     1    1
    12     1    20    1
    13    20    21    1
    14    21    22    1
    15    22    23    1
    16    23    24    1
    17    24    25    1
    18    25    26    1
    19    26    28    1
    20    28    29   ar
    21    29    30   ar
    22    30    31   ar
    23    31    34    1
    24    34    35    1
    25    34    36    1
    26    34    37    1
    27    31    32   ar
    28    32    33   ar
    29    26    27    1
    30     6     7   ar
    31     7     8    1
    32    14    15   ar
    33    15    16   ar
    34    16    17   ar
    35    17    18   ar
    36    18    19   ar
    37    19    10   ar
    38    18    13   ar
    39     7     3   ar
    40    27    22    1
    41    26    24    1
    42    33    28   ar
@<TRIPOS>MOLECULE
*****
 37 42 0 0 0
SMALL
GASTEIGER

@<TRIPOS>ATOM
      1 C         138.9188  140.3036  156.6098 C.3     1  UNL1        0.0666
      2 S         138.6577  141.5508  157.4011 S.3     1  UNL1       -0.0756
      3 C         138.4874  141.9883  161.2541 C.ar    1  UNL1        0.1669
      4 N         137.7542  140.6917  161.0769 N.ar    1  UNL1       -0.1282
      5 N         137.7287  140.3700  159.6120 N.ar    1  UNL1       -0.1221
      6 C         138.4462  141.4678  158.8838 C.ar    1  UNL1        0.1932
      7 N         138.9151  142.4679  159.8988 N.ar    1  UNL1       -0.2884
      8 C         139.6778  143.7266  159.6091 C.3     1  UNL1        0.1340
      9 C         144.2399  142.5789  164.9703 C.3     1  UNL1        0.0521
     10 C         142.8668  142.6050  164.3672 C.ar    1  UNL1        0.0593
     11 C         142.6069  141.9101  163.0635 C.ar    1  UNL1        0.0147
     12 C         141.2337  141.9362  162.4604 C.ar    1  UNL1        0.0028
     13 C         140.1205  142.6571  163.1609 C.ar    1  UNL1        0.0206
     14 C         138.7473  142.6832  162.5578 C.ar    1  UNL1        0.0374
     15 C         137.6340  143.4041  163.2583 C.ar    1  UNL1        0.0031
     16 C         137.8938  144.0990  164.5621 C.ar    1  UNL1        0.0016
     17 C         139.2670  144.0729  165.1652 C.ar    1  UNL1        0.0191
     18 C         140.3803  143.3520  164.4646 C.ar    1  UNL1        0.0810
     19 N         141.7535  143.3259  165.0677 N.ar    1  UNL1       -0.2497
     20 C         140.2686  139.6514  156.6615 C.3     1  UNL1        0.0294
     21 C         140.4319  138.3172  157.3272 C.3     1  UNL1        0.0730
     22 N         141.2308  138.2028  158.5917 N.3     1  UNL1       -0.2724
     23 C         142.7121  137.9844  158.6819 C.3     1  UNL1        0.0724
     24 C         143.0854  137.9332  160.1338 C.3     1  UNL1        0.0214
     25 C         143.1521  137.9275  161.6323 C.3     1  UNL1        0.0072
     26 C         141.8350  138.1200  160.9409 C.3     1  UNL1        0.0350
     27 C         140.6887  138.2866  159.9878 C.3     1  UNL1        0.0761
     28 C         141.0175  138.2441  162.1924 C.ar    1  UNL1       -0.0215
     29 C         139.5351  138.0199  162.1453 C.ar    1  UNL1       -0.0046
     30 C         138.7176  138.1440  163.3968 C.ar    1  UNL1       -0.0046
     31 C         139.3826  138.4922  164.6955 C.ar    1  UNL1       -0.0228
     32 C         140.8649  138.7164  164.7426 C.ar    1  UNL1       -0.0046
     33 C         141.6824  138.5923  163.4911 C.ar    1  UNL1       -0.0046
     34 C         138.5651  138.6163  165.9471 C.3     1  UNL1        0.0189
     35 C         138.2257  137.1572  165.8700 C.3     1  UNL1        0.0044
     36 C         138.9046  140.0753  166.0242 C.3     1  UNL1        0.0044
     37 C         137.7476  138.7404  167.1986 C.3     1  UNL1        0.0044
@<TRIPOS>BOND
     1     9    10    1
     2    10    11   ar
     3    11    12   ar
     4    12    13   ar
     5    13    14   ar
     6    14     3    1
     7     3     4   ar
     8     4     5   ar
     9     5     6   ar
    10     6     2    1
    11     2     1    1
    12     1    20    1
    13    20    21    1
    14    21    22    1
    15    22    23    1
    16    23    24    1
    17    24    25    1
    18    25    26    1
    19    26    28    1
    20    28    29   ar
    21    29    30   ar
    22    30    31   ar
    23    31    34    1
    24    34    35    1
    25    34    36    1
    26    34    37    1
    27    31    32   ar
    28    32    33   ar
    29    26    27    1
    30     6     7   ar
    31     7     8    1
    32    14    15   ar
    33    15    16   ar
    34    16    17   ar
    35    17    18   ar
    36    18    19   ar
    37    19    10   ar
    38    18    13   ar
    39     7     3   ar
    40    27    22    1
    41    26    24    1
    42    33    28   ar
@<TRIPOS>MOLECULE
*****
 37 42 0 0 0
SMALL
GASTEIGER

@<TRIPOS>ATOM
      1 C         140.8619  142.8413  156.9623 C.3     1  UNL1        0.0666
      2 S         140.3485  143.9656  157.8122 S.3     1  UNL1       -0.0756
      3 C         139.2652  143.5209  161.5128 C.ar    1  UNL1        0.1669
      4 N         138.0958  142.9161  160.7938 N.ar    1  UNL1       -0.1282
      5 N         138.3593  143.0090  159.3200 N.ar    1  UNL1       -0.1221
      6 C         139.6915  143.6713  159.1282 C.ar    1  UNL1        0.1932
      7 N         140.2513  143.9877  160.4834 N.ar    1  UNL1       -0.2884
      8 C         141.5664  144.6538  160.7606 C.3     1  UNL1        0.1340
      9 C         143.3559  140.1497  165.8891 C.3     1  UNL1        0.0521
     10 C         142.3721  141.0219  165.1668 C.ar    1  UNL1        0.0593
     11 C         142.2164  140.9045  163.6796 C.ar    1  UNL1        0.0147
     12 C         141.2326  141.7766  162.9573 C.ar    1  UNL1        0.0028
     13 C         140.4047  142.7662  163.7223 C.ar    1  UNL1        0.0206
     14 C         139.4209  143.6383  163.0001 C.ar    1  UNL1        0.0374
     15 C         138.5930  144.6279  163.7650 C.ar    1  UNL1        0.0031
     16 C         138.7487  144.7453  165.2524 C.ar    1  UNL1        0.0016
     17 C         139.7325  143.8732  165.9746 C.ar    1  UNL1        0.0191
     18 C         140.5604  142.8836  165.2095 C.ar    1  UNL1        0.0810
     19 N         141.5442  142.0114  165.9318 N.ar    1  UNL1       -0.2497
     20 C         139.9102  142.0384  156.1259 C.3     1  UNL1        0.0294
     21 C         139.3641  140.7421  156.6467 C.3     1  UNL1        0.0730
     22 N         140.1612  139.9317  157.6256 N.3     1  UNL1       -0.2724
     23 C         141.4401  139.2045  157.3332 C.3     1  UNL1        0.0724
     24 C         141.8886  138.5297  158.5956 C.3     1  UNL1        0.0214
     25 C         142.0780  137.9831  159.9796 C.3     1  UNL1        0.0072
     26 C         140.8868  138.8399  159.6681 C.3     1  UNL1        0.0350
     27 C         139.8192  139.7064  159.0686 C.3     1  UNL1        0.0761
     28 C         140.2958  138.7938  161.0460 C.ar    1  UNL1       -0.0215
     29 C         140.9224  137.9326  162.1023 C.ar    1  UNL1       -0.0046
     30 C         140.3314  137.8865  163.4802 C.ar    1  UNL1       -0.0046
     31 C         139.1138  138.7014  163.8018 C.ar    1  UNL1       -0.0228
     32 C         138.4873  139.5625  162.7455 C.ar    1  UNL1       -0.0046
     33 C         139.0783  139.6087  161.3676 C.ar    1  UNL1       -0.0046
     34 C         138.5228  138.6552  165.1797 C.3     1  UNL1        0.0189
     35 C         138.2348  140.1254  165.1054 C.3     1  UNL1        0.0044
     36 C         138.8109  137.1850  165.2540 C.3     1  UNL1        0.0044
     37 C         137.9319  138.6090  166.5576 C.3     1  UNL1        0.0044
@<TRIPOS>BOND
     1     9    10    1
     2    10    11   ar
     3    11    12   ar
     4    12    13   ar
     5    13    14   ar
     6    14     3    1
     7     3     4   ar
     8     4     5   ar
     9     5     6   ar
    10     6     2    1
    11     2     1    1
    12     1    20    1
    13    20    21    1
    14    21    22    1
    15    22    23    1
    16    23    24    1
    17    24    25    1
    18    25    26    1
    19    26    28    1
    20    28    29   ar
    21    29    30   ar
    22    30    31   ar
    23    31    34    1
    24    34    35    1
    25    34    36    1
    26    34    37    1
    27    31    32   ar
    28    32    33   ar
    29    26    27    1
    30     6     7   ar
    31     7     8    1
    32    14    15   ar
    33    15    16   ar
    34    16    17   ar
    35    17    18   ar
    36    18    19   ar
    37    19    10   ar
    38    18    13   ar
    39     7     3   ar
    40    27    22    1
    41    26    24    1
    42    33    28   ar
