@<TRIPOS>MOLECULE
*****
 40 45 0 0 0
SMALL
GASTEIGER

@<TRIPOS>ATOM
      1 C         141.2509  144.0836  161.0178 C.ar    1  UNL1        0.0932
      2 C         140.8302  145.4561  160.5827 C.ar    1  UNL1        0.0405
      3 C         139.5633  146.0564  161.1159 C.ar    1  UNL1        0.1034
      4 N         138.7169  145.2843  162.0842 N.ar    1  UNL1       -0.2120
      5 C         139.1375  143.9119  162.5192 C.ar    1  UNL1        0.2207
      6 N         140.4045  143.3115  161.9860 N.ar    1  UNL1       -0.2130
      7 C         144.2430  142.7072  158.9640 C.ar    1  UNL1        0.0879
      8 N         144.6920  142.4113  160.3642 N.ar    1  UNL1       -0.2427
      9 C         143.6258  142.8909  161.3041 C.ar    1  UNL1        0.0889
     10 C         142.5178  143.4832  160.4846 C.ar    1  UNL1        0.0659
     11 S         142.8993  143.3697  159.0384 S.2     1  UNL1       -0.0693
     12 C         147.2872  141.4600  153.9463 C.3     1  UNL1        0.0896
     13 N         146.5261  141.7718  155.2007 N.3     1  UNL1       -0.2715
     14 C         147.2224  142.4251  156.3575 C.3     1  UNL1        0.0725
     15 C         146.4613  142.7369  157.6120 C.3     1  UNL1        0.0238
     16 C         145.0040  142.3954  157.7095 C.3     1  UNL1        0.0493
     17 C         144.3078  141.7421  156.5527 C.3     1  UNL1        0.0238
     18 C         145.0688  141.4303  155.2982 C.3     1  UNL1        0.0725
     19 C         143.6614  142.7949  162.8006 C.ar    1  UNL1        0.0183
     20 C         144.1518  143.9552  163.6150 C.ar    1  UNL1        0.0038
     21 C         144.1874  143.8593  165.1115 C.ar    1  UNL1        0.0297
     22 C         143.7327  142.6032  165.7935 C.ar    1  UNL1        0.1401
     23 F         143.7683  142.5073  167.2901 F       1  UNL1       -0.2042
     24 C         143.2423  141.4429  164.9791 C.ar    1  UNL1        0.0297
     25 C         143.2066  141.5388  163.4827 C.ar    1  UNL1        0.0038
     26 N         138.2912  143.1396  163.4875 N.pl3   1  UNL1       -0.2825
     27 H         137.3341  143.0009  163.3030 H       1  UNL1        0.1551
     28 C         138.9031  142.5788  164.7369 C.ar    1  UNL1        0.0505
     29 C         138.6865  141.1389  165.0971 C.ar    1  UNL1        0.0159
     30 C         139.2984  140.5780  166.3465 C.ar    1  UNL1        0.0158
     31 C         140.1269  141.4571  167.2357 C.ar    1  UNL1        0.0480
     32 C         140.3435  142.8971  166.8755 C.ar    1  UNL1        0.0158
     33 C         139.7316  143.4579  165.6261 C.ar    1  UNL1        0.0159
     34 N         140.7389  140.8963  168.4852 N.pl3   1  UNL1       -0.3047
     35 C         140.2234  141.3205  169.8283 C.3     1  UNL1        0.1079
     36 C         140.8354  140.7597  171.0778 C.3     1  UNL1        0.0903
     37 N         141.9628  139.7748  170.9840 N.3     1  UNL1       -0.2946
     38 C         142.4783  139.3507  169.6407 C.3     1  UNL1        0.0903
     39 C         141.8664  139.9114  168.3913 C.3     1  UNL1        0.1079
     40 H         141.6546  138.9280  171.4619 H       1  UNL1        0.1233
@<TRIPOS>BOND
     1    12    13    1
     2    13    14    1
     3    14    15    1
     4    15    16    1
     5    16     7    1
     6     7     8   ar
     7     8     9   ar
     8     9    19    1
     9    19    20   ar
    10    20    21   ar
    11    21    22   ar
    12    22    23    1
    13    22    24   ar
    14    24    25   ar
    15     9    10   ar
    16    10     1    1
    17     1     2   ar
    18     2     3   ar
    19     3     4   ar
    20     4     5   ar
    21     5    26    1
    22    26    28    1
    23    28    29   ar
    24    29    30   ar
    25    30    31   ar
    26    31    34    1
    27    34    35    1
    28    35    36    1
    29    36    37    1
    30    37    38    1
    31    38    39    1
    32    31    32   ar
    33    32    33   ar
    34     5     6   ar
    35    10    11   ar
    36    16    17    1
    37    17    18    1
    38    18    13    1
    39    11     7   ar
    40    25    19   ar
    41     6     1   ar
    42    33    28   ar
    43    39    34    1
    44    26    27    1
    45    37    40    1
@<TRIPOS>MOLECULE
*****
 40 45 0 0 0
SMALL
GASTEIGER

@<TRIPOS>ATOM
      1 C         139.9987  142.0945  160.4249 C.ar    1  UNL1        0.0932
      2 C         140.3389  140.7558  159.8401 C.ar    1  UNL1        0.0405
      3 C         139.8914  139.5008  160.5290 C.ar    1  UNL1        0.1034
      4 N         139.1038  139.5845  161.8028 N.ar    1  UNL1       -0.2120
      5 C         138.7636  140.9232  162.3877 C.ar    1  UNL1        0.2207
      6 N         139.2111  142.1782  161.6987 N.ar    1  UNL1       -0.2130
      7 C         140.6555  145.1441  158.1153 C.ar    1  UNL1        0.0879
      8 N         141.6139  145.4177  159.2363 N.ar    1  UNL1       -0.2427
      9 C         141.4846  144.3086  160.2379 C.ar    1  UNL1        0.0889
     10 C         140.4462  143.3495  159.7360 C.ar    1  UNL1        0.0659
     11 S         139.9338  143.8659  158.4242 S.2     1  UNL1       -0.0693
     12 C         139.8501  148.5621  153.2503 C.3     1  UNL1        0.0896
     13 N         140.0515  147.7076  154.4666 N.3     1  UNL1       -0.2715
     14 C         139.2059  147.9273  155.6859 C.3     1  UNL1        0.0725
     15 C         139.4073  147.0728  156.9021 C.3     1  UNL1        0.0238
     16 C         140.4542  145.9986  156.8991 C.3     1  UNL1        0.0493
     17 C         141.2997  145.7789  155.6798 C.3     1  UNL1        0.0238
     18 C         141.0984  146.6334  154.4635 C.3     1  UNL1        0.0725
     19 C         142.2579  144.1811  161.5169 C.ar    1  UNL1        0.0183
     20 C         141.7328  144.8046  162.7761 C.ar    1  UNL1        0.0038
     21 C         142.5061  144.6770  164.0551 C.ar    1  UNL1        0.0297
     22 C         143.8043  143.9260  164.0748 C.ar    1  UNL1        0.1401
     23 F         144.5776  143.7984  165.3539 F       1  UNL1       -0.2042
     24 C         144.3293  143.3025  162.8157 C.ar    1  UNL1        0.0297
     25 C         143.5561  143.4300  161.5367 C.ar    1  UNL1        0.0038
     26 N         137.9759  141.0069  163.6616 N.pl3   1  UNL1       -0.2825
     27 H         136.9950  141.0848  163.6296 H       1  UNL1        0.1551
     28 C         138.6828  140.9720  164.9841 C.ar    1  UNL1        0.0505
     29 C         139.5341  142.1312  165.4103 C.ar    1  UNL1        0.0159
     30 C         140.2410  142.0963  166.7328 C.ar    1  UNL1        0.0158
     31 C         140.0966  140.9022  167.6291 C.ar    1  UNL1        0.0480
     32 C         139.2454  139.7430  167.2028 C.ar    1  UNL1        0.0158
     33 C         138.5384  139.7779  165.8803 C.ar    1  UNL1        0.0159
     34 N         140.8036  140.8672  168.9517 N.pl3   1  UNL1       -0.3047
     35 C         140.2930  141.6903  170.0969 C.3     1  UNL1        0.1079
     36 C         140.9998  141.6554  171.4195 C.3     1  UNL1        0.0903
     37 N         142.2173  140.7973  171.5967 N.3     1  UNL1       -0.2946
     38 C         142.7279  139.9742  170.4513 C.3     1  UNL1        0.0903
     39 C         142.0211  140.0092  169.1289 C.3     1  UNL1        0.1079
     40 H         142.0125  140.1489  172.3569 H       1  UNL1        0.1233
@<TRIPOS>BOND
     1    12    13    1
     2    13    14    1
     3    14    15    1
     4    15    16    1
     5    16     7    1
     6     7     8   ar
     7     8     9   ar
     8     9    19    1
     9    19    20   ar
    10    20    21   ar
    11    21    22   ar
    12    22    23    1
    13    22    24   ar
    14    24    25   ar
    15     9    10   ar
    16    10     1    1
    17     1     2   ar
    18     2     3   ar
    19     3     4   ar
    20     4     5   ar
    21     5    26    1
    22    26    28    1
    23    28    29   ar
    24    29    30   ar
    25    30    31   ar
    26    31    34    1
    27    34    35    1
    28    35    36    1
    29    36    37    1
    30    37    38    1
    31    38    39    1
    32    31    32   ar
    33    32    33   ar
    34     5     6   ar
    35    10    11   ar
    36    16    17    1
    37    17    18    1
    38    18    13    1
    39    11     7   ar
    40    25    19   ar
    41     6     1   ar
    42    33    28   ar
    43    39    34    1
    44    26    27    1
    45    37    40    1
@<TRIPOS>MOLECULE
*****
 40 45 0 0 0
SMALL
GASTEIGER

@<TRIPOS>ATOM
      1 C         140.3391  140.5668  160.3680 C.ar    1  UNL1        0.0932
      2 C         140.1869  141.9823  159.8956 C.ar    1  UNL1        0.0405
      3 C         139.3028  142.9328  160.6471 C.ar    1  UNL1        0.1034
      4 N         138.5709  142.4678  161.8710 N.ar    1  UNL1       -0.2120
      5 C         138.7231  141.0524  162.3434 C.ar    1  UNL1        0.2207
      6 N         139.6072  140.1018  161.5919 N.ar    1  UNL1       -0.2130
      7 C         142.0051  137.9604  158.0235 C.ar    1  UNL1        0.0879
      8 N         143.1622  138.3464  158.8965 N.ar    1  UNL1       -0.2427
      9 C         142.6790  139.3698  159.8810 C.ar    1  UNL1        0.0889
     10 C         141.2232  139.6162  159.6165 C.ar    1  UNL1        0.0659
     11 S         140.8068  138.7452  158.4685 S.2     1  UNL1       -0.0693
     12 C         142.1455  133.9766  153.5391 C.3     1  UNL1        0.0896
     13 N         142.1104  134.9726  154.6602 N.3     1  UNL1       -0.2715
     14 C         143.3196  135.1708  155.5254 C.3     1  UNL1        0.0725
     15 C         143.2845  136.1668  156.6465 C.3     1  UNL1        0.0238
     16 C         142.0402  136.9644  156.9024 C.3     1  UNL1        0.0493
     17 C         140.8311  136.7662  156.0372 C.3     1  UNL1        0.0238
     18 C         140.8662  135.7702  154.9161 C.3     1  UNL1        0.0725
     19 C         143.5063  140.0306  160.9435 C.ar    1  UNL1        0.0183
     20 C         144.0345  141.4179  160.7281 C.ar    1  UNL1        0.0038
     21 C         144.8618  142.0788  161.7905 C.ar    1  UNL1        0.0297
     22 C         145.1609  141.3524  163.0683 C.ar    1  UNL1        0.1401
     23 F         145.9883  142.0133  164.1307 F       1  UNL1       -0.2042
     24 C         144.6328  139.9651  163.2836 C.ar    1  UNL1        0.0297
     25 C         143.8055  139.3042  162.2213 C.ar    1  UNL1        0.0038
     26 N         137.9911  140.5874  163.5675 N.pl3   1  UNL1       -0.2825
     27 H         137.0659  140.2593  163.4929 H       1  UNL1        0.1551
     28 C         138.6689  140.6223  164.9052 C.ar    1  UNL1        0.0505
     29 C         139.6160  141.7372  165.2372 C.ar    1  UNL1        0.0159
     30 C         140.2938  141.7721  166.5748 C.ar    1  UNL1        0.0158
     31 C         140.0245  140.6922  167.5805 C.ar    1  UNL1        0.0480
     32 C         139.0775  139.5774  167.2484 C.ar    1  UNL1        0.0158
     33 C         138.3996  139.5424  165.9108 C.ar    1  UNL1        0.0159
     34 N         140.7024  140.7271  168.9182 N.pl3   1  UNL1       -0.3047
     35 C         140.1815  141.6265  169.9996 C.3     1  UNL1        0.1079
     36 C         140.8592  141.6615  171.3373 C.3     1  UNL1        0.0903
     37 N         142.0579  140.7969  171.5935 N.3     1  UNL1       -0.2946
     38 C         142.5788  139.8974  170.5120 C.3     1  UNL1        0.0903
     39 C         141.9010  139.8625  169.1744 C.3     1  UNL1        0.1079
     40 H         141.8258  140.1995  172.3870 H       1  UNL1        0.1233
@<TRIPOS>BOND
     1    12    13    1
     2    13    14    1
     3    14    15    1
     4    15    16    1
     5    16     7    1
     6     7     8   ar
     7     8     9   ar
     8     9    19    1
     9    19    20   ar
    10    20    21   ar
    11    21    22   ar
    12    22    23    1
    13    22    24   ar
    14    24    25   ar
    15     9    10   ar
    16    10     1    1
    17     1     2   ar
    18     2     3   ar
    19     3     4   ar
    20     4     5   ar
    21     5    26    1
    22    26    28    1
    23    28    29   ar
    24    29    30   ar
    25    30    31   ar
    26    31    34    1
    27    34    35    1
    28    35    36    1
    29    36    37    1
    30    37    38    1
    31    38    39    1
    32    31    32   ar
    33    32    33   ar
    34     5     6   ar
    35    10    11   ar
    36    16    17    1
    37    17    18    1
    38    18    13    1
    39    11     7   ar
    40    25    19   ar
    41     6     1   ar
    42    33    28   ar
    43    39    34    1
    44    26    27    1
    45    37    40    1
@<TRIPOS>MOLECULE
*****
 40 45 0 0 0
SMALL
GASTEIGER

@<TRIPOS>ATOM
      1 C         139.0714  140.5449  161.2000 C.ar    1  UNL1        0.0932
      2 C         137.8261  139.8494  160.7357 C.ar    1  UNL1        0.0405
      3 C         137.4432  138.5242  161.3248 C.ar    1  UNL1        0.1034
      4 N         138.3056  137.8944  162.3782 N.ar    1  UNL1       -0.2120
      5 C         139.5509  138.5898  162.8424 C.ar    1  UNL1        0.2207
      6 N         139.9338  139.9151  162.2534 N.ar    1  UNL1       -0.2130
      7 C         139.9591  143.6274  159.0147 C.ar    1  UNL1        0.0879
      8 N         140.1280  144.1917  160.3941 N.ar    1  UNL1       -0.2427
      9 C         139.8161  143.1057  161.3807 C.ar    1  UNL1        0.0889
     10 C         139.4543  141.8702  160.6110 C.ar    1  UNL1        0.0659
     11 S         139.5427  142.1926  159.1487 S.2     1  UNL1       -0.0693
     12 C         140.8010  146.5891  153.8650 C.3     1  UNL1        0.0896
     13 N         140.5905  145.8487  155.1524 N.3     1  UNL1       -0.2715
     14 C         140.6705  144.3511  155.1780 C.3     1  UNL1        0.0725
     15 C         140.4600  143.6107  156.4654 C.3     1  UNL1        0.0238
     16 C         140.1696  144.3678  157.7272 C.3     1  UNL1        0.0493
     17 C         140.0896  145.8654  157.7017 C.3     1  UNL1        0.0238
     18 C         140.3001  146.6059  156.4142 C.3     1  UNL1        0.0725
     19 C         139.8585  143.2330  162.8747 C.ar    1  UNL1        0.0183
     20 C         141.0816  142.8040  163.6295 C.ar    1  UNL1        0.0038
     21 C         141.1240  142.9312  165.1235 C.ar    1  UNL1        0.0297
     22 C         139.9433  143.4874  165.8626 C.ar    1  UNL1        0.1401
     23 F         139.9857  143.6147  167.3567 F       1  UNL1       -0.2042
     24 C         138.7201  143.9164  165.1078 C.ar    1  UNL1        0.0297
     25 C         138.6777  143.7892  163.6139 C.ar    1  UNL1        0.0038
     26 N         140.4134  137.9600  163.8959 N.pl3   1  UNL1       -0.2825
     27 H         140.7956  137.0647  163.7487 H       1  UNL1        0.1551
     28 C         140.6935  138.6943  165.1735 C.ar    1  UNL1        0.0505
     29 C         142.1047  138.8414  165.6601 C.ar    1  UNL1        0.0159
     30 C         142.3849  139.5758  166.9377 C.ar    1  UNL1        0.0158
     31 C         141.2537  140.1630  167.7287 C.ar    1  UNL1        0.0480
     32 C         139.8425  140.0159  167.2420 C.ar    1  UNL1        0.0158
     33 C         139.5624  139.2816  165.9644 C.ar    1  UNL1        0.0159
     34 N         141.5338  140.8974  169.0063 N.pl3   1  UNL1       -0.3047
     35 C         140.8370  140.4935  170.2717 C.3     1  UNL1        0.1079
     36 C         141.1170  141.2279  171.5493 C.3     1  UNL1        0.0903
     37 N         142.0939  142.3661  171.5615 N.3     1  UNL1       -0.2946
     38 C         142.7908  142.7700  170.2961 C.3     1  UNL1        0.0903
     39 C         142.5107  142.0356  169.0185 C.3     1  UNL1        0.1079
     40 H         142.8216  142.1224  172.2335 H       1  UNL1        0.1233
@<TRIPOS>BOND
     1    12    13    1
     2    13    14    1
     3    14    15    1
     4    15    16    1
     5    16     7    1
     6     7     8   ar
     7     8     9   ar
     8     9    19    1
     9    19    20   ar
    10    20    21   ar
    11    21    22   ar
    12    22    23    1
    13    22    24   ar
    14    24    25   ar
    15     9    10   ar
    16    10     1    1
    17     1     2   ar
    18     2     3   ar
    19     3     4   ar
    20     4     5   ar
    21     5    26    1
    22    26    28    1
    23    28    29   ar
    24    29    30   ar
    25    30    31   ar
    26    31    34    1
    27    34    35    1
    28    35    36    1
    29    36    37    1
    30    37    38    1
    31    38    39    1
    32    31    32   ar
    33    32    33   ar
    34     5     6   ar
    35    10    11   ar
    36    16    17    1
    37    17    18    1
    38    18    13    1
    39    11     7   ar
    40    25    19   ar
    41     6     1   ar
    42    33    28   ar
    43    39    34    1
    44    26    27    1
    45    37    40    1
@<TRIPOS>MOLECULE
*****
 40 45 0 0 0
SMALL
GASTEIGER

@<TRIPOS>ATOM
      1 C         139.8615  141.4642  160.4081 C.ar    1  UNL1        0.0932
      2 C         140.5781  140.3507  159.7034 C.ar    1  UNL1        0.0405
      3 C         140.5207  138.9561  160.2526 C.ar    1  UNL1        0.1034
      4 N         139.7467  138.6750  161.5064 N.ar    1  UNL1       -0.2120
      5 C         139.0302  139.7885  162.2110 C.ar    1  UNL1        0.2207
      6 N         139.0875  141.1832  161.6618 N.ar    1  UNL1       -0.2130
      7 C         140.0724  144.7290  158.3195 C.ar    1  UNL1        0.0879
      8 N         139.9418  145.2812  159.7080 N.ar    1  UNL1       -0.2427
      9 C         139.8469  144.1254  160.6594 C.ar    1  UNL1        0.0889
     10 C         139.9188  142.8589  159.8589 C.ar    1  UNL1        0.0659
     11 S         140.0582  143.2320  158.4127 S.2     1  UNL1       -0.0693
     12 C         140.5651  147.9441  153.2776 C.3     1  UNL1        0.0896
     13 N         140.4419  147.1403  154.5380 N.3     1  UNL1       -0.2715
     14 C         141.2613  145.8968  154.7177 C.3     1  UNL1        0.0725
     15 C         141.1381  145.0931  155.9782 C.3     1  UNL1        0.0238
     16 C         140.1956  145.5328  157.0590 C.3     1  UNL1        0.0493
     17 C         139.3762  146.7763  156.8793 C.3     1  UNL1        0.0238
     18 C         139.4993  147.5800  155.6188 C.3     1  UNL1        0.0725
     19 C         139.7050  144.2196  162.1497 C.ar    1  UNL1        0.0183
     20 C         140.9187  144.1259  163.0261 C.ar    1  UNL1        0.0038
     21 C         140.7768  144.2201  164.5164 C.ar    1  UNL1        0.0297
     22 C         139.4212  144.4079  165.1303 C.ar    1  UNL1        0.1401
     23 F         139.2793  144.5021  166.6206 F       1  UNL1       -0.2042
     24 C         138.2075  144.5016  164.2539 C.ar    1  UNL1        0.0297
     25 C         138.3493  144.4075  162.7637 C.ar    1  UNL1        0.0038
     26 N         138.2562  139.5074  163.4649 N.pl3   1  UNL1       -0.2825
     27 H         137.3292  139.1808  163.4084 H       1  UNL1        0.1551
     28 C         138.8947  139.7241  164.8048 C.ar    1  UNL1        0.0505
     29 C         138.2136  139.2343  166.0482 C.ar    1  UNL1        0.0159
     30 C         138.8521  139.4510  167.3881 C.ar    1  UNL1        0.0158
     31 C         140.1717  140.1576  167.4846 C.ar    1  UNL1        0.0480
     32 C         140.8528  140.6474  166.2411 C.ar    1  UNL1        0.0158
     33 C         140.2143  140.4307  164.9012 C.ar    1  UNL1        0.0159
     34 N         140.8103  140.3743  168.8245 N.pl3   1  UNL1       -0.3047
     35 C         140.1743  141.3017  169.8171 C.3     1  UNL1        0.1079
     36 C         140.8128  141.5185  171.1570 C.3     1  UNL1        0.0903
     37 N         142.0873  140.8078  171.5042 N.3     1  UNL1       -0.2946
     38 C         142.7233  139.8803  170.5116 C.3     1  UNL1        0.0903
     39 C         142.0847  139.6636  169.1718 C.3     1  UNL1        0.1079
     40 H         141.8988  140.2578  172.3423 H       1  UNL1        0.1233
@<TRIPOS>BOND
     1    12    13    1
     2    13    14    1
     3    14    15    1
     4    15    16    1
     5    16     7    1
     6     7     8   ar
     7     8     9   ar
     8     9    19    1
     9    19    20   ar
    10    20    21   ar
    11    21    22   ar
    12    22    23    1
    13    22    24   ar
    14    24    25   ar
    15     9    10   ar
    16    10     1    1
    17     1     2   ar
    18     2     3   ar
    19     3     4   ar
    20     4     5   ar
    21     5    26    1
    22    26    28    1
    23    28    29   ar
    24    29    30   ar
    25    30    31   ar
    26    31    34    1
    27    34    35    1
    28    35    36    1
    29    36    37    1
    30    37    38    1
    31    38    39    1
    32    31    32   ar
    33    32    33   ar
    34     5     6   ar
    35    10    11   ar
    36    16    17    1
    37    17    18    1
    38    18    13    1
    39    11     7   ar
    40    25    19   ar
    41     6     1   ar
    42    33    28   ar
    43    39    34    1
    44    26    27    1
    45    37    40    1
@<TRIPOS>MOLECULE
*****
 40 45 0 0 0
SMALL
GASTEIGER

@<TRIPOS>ATOM
      1 C         141.4735  142.1272  160.3918 C.ar    1  UNL1        0.0932
      2 C         140.3571  143.0107  159.9195 C.ar    1  UNL1        0.0405
      3 C         139.0043  142.9173  160.5607 C.ar    1  UNL1        0.1034
      4 N         138.7679  141.9404  161.6741 N.ar    1  UNL1       -0.2120
      5 C         139.8842  141.0570  162.1464 C.ar    1  UNL1        0.2207
      6 N         141.2370  141.1503  161.5053 N.ar    1  UNL1       -0.2130
      7 C         144.6052  142.1923  158.0997 C.ar    1  UNL1        0.0879
      8 N         145.2111  142.5359  159.4281 N.ar    1  UNL1       -0.2427
      9 C         144.1117  142.5533  160.4485 C.ar    1  UNL1        0.0889
     10 C         142.8263  142.2205  159.7506 C.ar    1  UNL1        0.0659
     11 S         143.1313  141.9974  158.2990 S.2     1  UNL1       -0.0693
     12 C         147.5584  141.6865  152.9014 C.3     1  UNL1        0.0896
     13 N         146.8201  141.8129  154.2009 N.3     1  UNL1       -0.2715
     14 C         147.5194  142.3579  155.4109 C.3     1  UNL1        0.0725
     15 C         146.7811  142.4843  156.7104 C.3     1  UNL1        0.0238
     16 C         145.3435  142.0659  156.8001 C.3     1  UNL1        0.0493
     17 C         144.6442  141.5209  155.5902 C.3     1  UNL1        0.0238
     18 C         145.3825  141.3944  154.2906 C.3     1  UNL1        0.0725
     19 C         144.2700  142.8513  161.9101 C.ar    1  UNL1        0.0183
     20 C         145.0451  141.9132  162.7870 C.ar    1  UNL1        0.0038
     21 C         145.2033  142.2111  164.2486 C.ar    1  UNL1        0.0297
     22 C         144.5865  143.4471  164.8331 C.ar    1  UNL1        0.1401
     23 F         144.7448  143.7450  166.2948 F       1  UNL1       -0.2042
     24 C         143.8114  144.3852  163.9561 C.ar    1  UNL1        0.0297
     25 C         143.6531  144.0873  162.4946 C.ar    1  UNL1        0.0038
     26 N         139.6478  140.0800  163.2600 N.pl3   1  UNL1       -0.2825
     27 H         139.2267  139.2105  163.0708 H       1  UNL1        0.1551
     28 C         140.0531  140.4281  164.6616 C.ar    1  UNL1        0.0505
     29 C         141.2382  141.3158  164.9011 C.ar    1  UNL1        0.0159
     30 C         141.6435  141.6638  166.3028 C.ar    1  UNL1        0.0158
     31 C         140.8636  141.1242  167.4649 C.ar    1  UNL1        0.0480
     32 C         139.6785  140.2364  167.2253 C.ar    1  UNL1        0.0158
     33 C         139.2732  139.8884  165.8237 C.ar    1  UNL1        0.0159
     34 N         141.2689  141.4722  168.8666 N.pl3   1  UNL1       -0.3047
     35 C         140.6637  140.7384  170.0263 C.3     1  UNL1        0.1079
     36 C         141.0689  141.0863  171.4280 C.3     1  UNL1        0.0903
     37 N         142.0793  142.1682  171.6699 N.3     1  UNL1       -0.2946
     38 C         142.6846  142.9021  170.5101 C.3     1  UNL1        0.0903
     39 C         142.2793  142.5541  169.1085 C.3     1  UNL1        0.1079
     40 H         142.8506  141.7414  172.1831 H       1  UNL1        0.1233
@<TRIPOS>BOND
     1    12    13    1
     2    13    14    1
     3    14    15    1
     4    15    16    1
     5    16     7    1
     6     7     8   ar
     7     8     9   ar
     8     9    19    1
     9    19    20   ar
    10    20    21   ar
    11    21    22   ar
    12    22    23    1
    13    22    24   ar
    14    24    25   ar
    15     9    10   ar
    16    10     1    1
    17     1     2   ar
    18     2     3   ar
    19     3     4   ar
    20     4     5   ar
    21     5    26    1
    22    26    28    1
    23    28    29   ar
    24    29    30   ar
    25    30    31   ar
    26    31    34    1
    27    34    35    1
    28    35    36    1
    29    36    37    1
    30    37    38    1
    31    38    39    1
    32    31    32   ar
    33    32    33   ar
    34     5     6   ar
    35    10    11   ar
    36    16    17    1
    37    17    18    1
    38    18    13    1
    39    11     7   ar
    40    25    19   ar
    41     6     1   ar
    42    33    28   ar
    43    39    34    1
    44    26    27    1
    45    37    40    1
@<TRIPOS>MOLECULE
*****
 40 45 0 0 0
SMALL
GASTEIGER

@<TRIPOS>ATOM
      1 C         140.5862  141.5238  160.4363 C.ar    1  UNL1        0.0932
      2 C         139.6149  140.4281  160.1105 C.ar    1  UNL1        0.0405
      3 C         139.7617  139.0804  160.7524 C.ar    1  UNL1        0.1034
      4 N         140.8797  138.8283  161.7201 N.ar    1  UNL1       -0.2120
      5 C         141.8509  139.9239  162.0459 C.ar    1  UNL1        0.2207
      6 N         141.7042  141.2717  161.4040 N.ar    1  UNL1       -0.2130
      7 C         140.3989  144.6495  158.1428 C.ar    1  UNL1        0.0879
      8 N         140.0285  145.2415  159.4704 N.ar    1  UNL1       -0.2427
      9 C         140.0536  144.1426  160.4911 C.ar    1  UNL1        0.0889
     10 C         140.4395  142.8715  159.7944 C.ar    1  UNL1        0.0659
     11 S         140.6529  143.1848  158.3431 S.2     1  UNL1       -0.0693
     12 C         140.7950  147.6191  152.9443 C.3     1  UNL1        0.0896
     13 N         140.6960  146.8767  154.2439 N.3     1  UNL1       -0.2715
     14 C         139.7763  147.3700  155.3213 C.3     1  UNL1        0.0725
     15 C         139.6772  146.6276  156.6209 C.3     1  UNL1        0.0238
     16 C         140.4980  145.3919  156.8432 C.3     1  UNL1        0.0493
     17 C         141.4177  144.8986  155.7658 C.3     1  UNL1        0.0238
     18 C         141.5167  145.6410  154.4662 C.3     1  UNL1        0.0725
     19 C         139.7466  144.2892  161.9520 C.ar    1  UNL1        0.0183
     20 C         138.3388  144.1245  162.4428 C.ar    1  UNL1        0.0038
     21 C         138.0318  144.2710  163.9037 C.ar    1  UNL1        0.0297
     22 C         139.1326  144.5822  164.8738 C.ar    1  UNL1        0.1401
     23 F         138.8256  144.7288  166.3348 F       1  UNL1       -0.2042
     24 C         140.5405  144.7469  164.3831 C.ar    1  UNL1        0.0297
     25 C         140.8475  144.6004  162.9222 C.ar    1  UNL1        0.0038
     26 N         142.9690  139.6719  163.0137 N.pl3   1  UNL1       -0.2825
     27 H         143.7978  139.2384  162.7064 H       1  UNL1        0.1551
     28 C         142.8243  140.0804  164.4497 C.ar    1  UNL1        0.0505
     29 C         143.1101  141.4947  164.8597 C.ar    1  UNL1        0.0159
     30 C         142.9653  141.9032  166.2957 C.ar    1  UNL1        0.0158
     31 C         142.5348  140.8974  167.3218 C.ar    1  UNL1        0.0480
     32 C         142.2490  139.4831  166.9118 C.ar    1  UNL1        0.0158
     33 C         142.3937  139.0746  165.4758 C.ar    1  UNL1        0.0159
     34 N         142.3900  141.3059  168.7579 N.pl3   1  UNL1       -0.3047
     35 C         143.0162  142.5800  169.2419 C.3     1  UNL1        0.1079
     36 C         142.8715  142.9885  170.6780 C.3     1  UNL1        0.0903
     37 N         142.1005  142.1228  171.6299 N.3     1  UNL1       -0.2946
     38 C         141.4743  140.8486  171.1458 C.3     1  UNL1        0.0903
     39 C         141.6190  140.4402  169.7098 C.3     1  UNL1        0.1079
     40 H         141.3461  142.6974  172.0055 H       1  UNL1        0.1233
@<TRIPOS>BOND
     1    12    13    1
     2    13    14    1
     3    14    15    1
     4    15    16    1
     5    16     7    1
     6     7     8   ar
     7     8     9   ar
     8     9    19    1
     9    19    20   ar
    10    20    21   ar
    11    21    22   ar
    12    22    23    1
    13    22    24   ar
    14    24    25   ar
    15     9    10   ar
    16    10     1    1
    17     1     2   ar
    18     2     3   ar
    19     3     4   ar
    20     4     5   ar
    21     5    26    1
    22    26    28    1
    23    28    29   ar
    24    29    30   ar
    25    30    31   ar
    26    31    34    1
    27    34    35    1
    28    35    36    1
    29    36    37    1
    30    37    38    1
    31    38    39    1
    32    31    32   ar
    33    32    33   ar
    34     5     6   ar
    35    10    11   ar
    36    16    17    1
    37    17    18    1
    38    18    13    1
    39    11     7   ar
    40    25    19   ar
    41     6     1   ar
    42    33    28   ar
    43    39    34    1
    44    26    27    1
    45    37    40    1
@<TRIPOS>MOLECULE
*****
 40 45 0 0 0
SMALL
GASTEIGER

@<TRIPOS>ATOM
      1 C         142.1316  140.4423  160.8008 C.ar    1  UNL1        0.0932
      2 C         142.9813  139.4613  160.0488 C.ar    1  UNL1        0.0405
      3 C         143.0616  138.0346  160.5048 C.ar    1  UNL1        0.1034
      4 N         142.2922  137.5889  161.7128 N.ar    1  UNL1       -0.2120
      5 C         141.4425  138.5699  162.4648 C.ar    1  UNL1        0.2207
      6 N         141.3622  139.9966  162.0088 N.ar    1  UNL1       -0.2130
      7 C         141.6908  143.8359  158.9692 C.ar    1  UNL1        0.0879
      8 N         142.1645  144.2933  160.3170 N.ar    1  UNL1       -0.2427
      9 C         142.3873  143.0778  161.1671 C.ar    1  UNL1        0.0889
     10 C         142.0512  141.8691  160.3448 C.ar    1  UNL1        0.0659
     11 S         141.6208  142.3377  158.9865 S.2     1  UNL1       -0.0693
     12 C         140.3170  147.3775  154.3249 C.3     1  UNL1        0.0896
     13 N         140.6604  146.4921  155.4860 N.3     1  UNL1       -0.2715
     14 C         141.7701  145.4905  155.3628 C.3     1  UNL1        0.0725
     15 C         142.1136  144.6051  156.5239 C.3     1  UNL1        0.0238
     16 C         141.3473  144.7213  157.8081 C.3     1  UNL1        0.0493
     17 C         140.2376  145.7230  157.9313 C.3     1  UNL1        0.0238
     18 C         139.8942  146.6084  156.7702 C.3     1  UNL1        0.0725
     19 C         142.8626  143.0719  162.5898 C.ar    1  UNL1        0.0183
     20 C         141.8682  143.0748  163.7128 C.ar    1  UNL1        0.0038
     21 C         142.3436  143.0689  165.1355 C.ar    1  UNL1        0.0297
     22 C         143.8133  143.0603  165.4351 C.ar    1  UNL1        0.1401
     23 F         144.2886  143.0545  166.8579 F       1  UNL1       -0.2042
     24 C         144.8076  143.0575  164.3121 C.ar    1  UNL1        0.0297
     25 C         144.3324  143.0633  162.8895 C.ar    1  UNL1        0.0038
     26 N         140.6730  138.1242  163.6729 N.pl3   1  UNL1       -0.2825
     27 H         140.0316  137.3807  163.6013 H       1  UNL1        0.1551
     28 C         140.8808  138.8114  164.9899 C.ar    1  UNL1        0.0505
     29 C         139.7008  139.3120  165.7691 C.ar    1  UNL1        0.0159
     30 C         139.9086  139.9992  167.0861 C.ar    1  UNL1        0.0158
     31 C         141.2963  140.1857  167.6240 C.ar    1  UNL1        0.0480
     32 C         142.4763  139.6851  166.8448 C.ar    1  UNL1        0.0158
     33 C         142.2685  138.9979  165.5278 C.ar    1  UNL1        0.0159
     34 N         141.5042  140.8729  168.9411 N.pl3   1  UNL1       -0.3047
     35 C         140.9129  140.2925  170.1914 C.3     1  UNL1        0.1079
     36 C         141.1207  140.9796  171.5084 C.3     1  UNL1        0.0903
     37 N         141.9198  142.2472  171.5751 N.3     1  UNL1       -0.2946
     38 C         142.5112  142.8277  170.3248 C.3     1  UNL1        0.0903
     39 C         142.3033  142.1406  169.0078 C.3     1  UNL1        0.1079
     40 H         142.6954  142.0731  172.2143 H       1  UNL1        0.1233
@<TRIPOS>BOND
     1    12    13    1
     2    13    14    1
     3    14    15    1
     4    15    16    1
     5    16     7    1
     6     7     8   ar
     7     8     9   ar
     8     9    19    1
     9    19    20   ar
    10    20    21   ar
    11    21    22   ar
    12    22    23    1
    13    22    24   ar
    14    24    25   ar
    15     9    10   ar
    16    10     1    1
    17     1     2   ar
    18     2     3   ar
    19     3     4   ar
    20     4     5   ar
    21     5    26    1
    22    26    28    1
    23    28    29   ar
    24    29    30   ar
    25    30    31   ar
    26    31    34    1
    27    34    35    1
    28    35    36    1
    29    36    37    1
    30    37    38    1
    31    38    39    1
    32    31    32   ar
    33    32    33   ar
    34     5     6   ar
    35    10    11   ar
    36    16    17    1
    37    17    18    1
    38    18    13    1
    39    11     7   ar
    40    25    19   ar
    41     6     1   ar
    42    33    28   ar
    43    39    34    1
    44    26    27    1
    45    37    40    1
@<TRIPOS>MOLECULE
*****
 40 45 0 0 0
SMALL
GASTEIGER

@<TRIPOS>ATOM
      1 C         141.6094  139.5686  160.5747 C.ar    1  UNL1        0.0932
      2 C         140.2811  139.2593  159.9501 C.ar    1  UNL1        0.0405
      3 C         139.3357  138.3126  160.6282 C.ar    1  UNL1        0.1034
      4 N         139.7185  137.6751  161.9308 N.ar    1  UNL1       -0.2120
      5 C         141.0467  137.9843  162.5555 C.ar    1  UNL1        0.2207
      6 N         141.9922  138.9311  161.8774 N.ar    1  UNL1       -0.2130
      7 C         144.2210  141.4258  158.3848 C.ar    1  UNL1        0.0879
      8 N         143.7987  142.5185  159.3216 N.ar    1  UNL1       -0.2427
      9 C         142.7690  141.9558  160.2560 C.ar    1  UNL1        0.0889
     10 C         142.5549  140.5153  159.8967 C.ar    1  UNL1        0.0659
     11 S         143.4522  140.1878  158.7402 S.2     1  UNL1       -0.0693
     12 C         148.2735  141.9203  153.9879 C.3     1  UNL1        0.0896
     13 N         147.2603  141.7967  155.0871 N.3     1  UNL1       -0.2715
     14 C         147.3689  142.6615  156.3079 C.3     1  UNL1        0.0725
     15 C         146.3558  142.5379  157.4071 C.3     1  UNL1        0.0238
     16 C         145.2341  141.5494  157.2856 C.3     1  UNL1        0.0493
     17 C         145.1256  140.6846  156.0648 C.3     1  UNL1        0.0238
     18 C         146.1387  140.8082  154.9656 C.3     1  UNL1        0.0725
     19 C         142.0752  142.7025  161.3565 C.ar    1  UNL1        0.0183
     20 C         140.9718  143.6648  161.0302 C.ar    1  UNL1        0.0038
     21 C         140.2781  144.4115  162.1307 C.ar    1  UNL1        0.0297
     22 C         140.6877  144.1959  163.5575 C.ar    1  UNL1        0.1401
     23 F         139.9939  144.9427  164.6580 F       1  UNL1       -0.2042
     24 C         141.7911  143.2336  163.8838 C.ar    1  UNL1        0.0297
     25 C         142.4848  142.4869  162.7833 C.ar    1  UNL1        0.0038
     26 N         141.4295  137.3468  163.8583 N.pl3   1  UNL1       -0.2825
     27 H         141.5902  136.3765  163.9031 H       1  UNL1        0.1551
     28 C         141.5675  138.1877  165.0927 C.ar    1  UNL1        0.0505
     29 C         140.3964  138.9781  165.5966 C.ar    1  UNL1        0.0159
     30 C         140.5344  139.8190  166.8310 C.ar    1  UNL1        0.0158
     31 C         141.8435  139.8695  167.5616 C.ar    1  UNL1        0.0480
     32 C         143.0146  139.0791  167.0577 C.ar    1  UNL1        0.0158
     33 C         142.8766  138.2382  165.8233 C.ar    1  UNL1        0.0159
     34 N         141.9816  140.7104  168.7961 N.pl3   1  UNL1       -0.3047
     35 C         142.9877  141.8220  168.8376 C.3     1  UNL1        0.1079
     36 C         143.1258  142.6629  170.0720 C.3     1  UNL1        0.0903
     37 N         142.2577  142.3922  171.2649 N.3     1  UNL1       -0.2946
     38 C         141.2514  141.2805  171.2234 C.3     1  UNL1        0.0903
     39 C         141.1134  140.4397  169.9890 C.3     1  UNL1        0.1079
     40 H         141.7403  143.2507  171.4535 H       1  UNL1        0.1233
@<TRIPOS>BOND
     1    12    13    1
     2    13    14    1
     3    14    15    1
     4    15    16    1
     5    16     7    1
     6     7     8   ar
     7     8     9   ar
     8     9    19    1
     9    19    20   ar
    10    20    21   ar
    11    21    22   ar
    12    22    23    1
    13    22    24   ar
    14    24    25   ar
    15     9    10   ar
    16    10     1    1
    17     1     2   ar
    18     2     3   ar
    19     3     4   ar
    20     4     5   ar
    21     5    26    1
    22    26    28    1
    23    28    29   ar
    24    29    30   ar
    25    30    31   ar
    26    31    34    1
    27    34    35    1
    28    35    36    1
    29    36    37    1
    30    37    38    1
    31    38    39    1
    32    31    32   ar
    33    32    33   ar
    34     5     6   ar
    35    10    11   ar
    36    16    17    1
    37    17    18    1
    38    18    13    1
    39    11     7   ar
    40    25    19   ar
    41     6     1   ar
    42    33    28   ar
    43    39    34    1
    44    26    27    1
    45    37    40    1
