@<TRIPOS>MOLECULE
*****
 30 34 0 0 0
SMALL
GASTEIGER

@<TRIPOS>ATOM
      1 C         144.8500  139.7094  163.6727 C.3     1  UNL1        0.0294
      2 C         145.4337  141.0328  163.2753 C.3     1  UNL1        0.0666
      3 S         144.9879  142.2871  163.9667 S.3     1  UNL1       -0.0756
      4 C         141.1324  142.6853  164.1695 C.ar    1  UNL1        0.2029
      5 N         141.5139  142.8180  165.6141 N.ar    1  UNL1       -0.1250
      6 N         143.0046  142.6850  165.7140 N.ar    1  UNL1       -0.1220
      7 C         143.5444  142.4701  164.3311 C.ar    1  UNL1        0.1933
      8 N         142.3873  142.4703  163.3766 N.ar    1  UNL1       -0.2860
      9 C         142.4706  142.2875  161.8901 C.3     1  UNL1        0.1341
     10 C         139.7993  145.2475  162.6503 C.3     1  UNL1        0.0556
     11 C         139.1276  143.9330  162.9170 C.ar    1  UNL1        0.1001
     12 N         137.7251  143.5655  162.5321 N.ar    1  UNL1       -0.2085
     13 C         137.4712  142.1607  162.9925 C.ar    1  UNL1        0.2849
     14 O         138.7165  141.6600  163.6619 O.2     1  UNL1       -0.4283
     15 C         139.7403  142.7554  163.6152 C.ar    1  UNL1        0.1964
     16 C         143.9940  138.9465  162.7057 C.3     1  UNL1        0.0730
     17 N         142.5814  138.5963  163.0690 N.3     1  UNL1       -0.2724
     18 C         141.6160  137.8284  162.2157 C.3     1  UNL1        0.0724
     19 C         140.3241  137.7101  162.9687 C.3     1  UNL1        0.0214
     20 C         139.1844  137.7542  163.9428 C.3     1  UNL1        0.0072
     21 C         140.4912  138.4049  164.2876 C.3     1  UNL1        0.0350
     22 C         141.8862  138.9526  164.3495 C.3     1  UNL1        0.0761
     23 C         140.0692  138.8972  165.6402 C.ar    1  UNL1       -0.0206
     24 C         138.6465  138.7352  166.0870 C.ar    1  UNL1       -0.0033
     25 C         138.2245  139.2275  167.4397 C.ar    1  UNL1        0.0119
     26 C         139.2252  139.8818  168.3455 C.ar    1  UNL1        0.0682
     27 CL        138.8032  140.3741  169.6981 Cl      1  UNL1       -0.0814
     28 C         140.6480  140.0438  167.8986 C.ar    1  UNL1        0.0679
     29 CL        141.6487  140.6981  168.8044 Cl      1  UNL1       -0.0814
     30 C         141.0699  139.5515  166.5460 C.ar    1  UNL1        0.0080
@<TRIPOS>BOND
     1    10    11    1
     2    11    12   ar
     3    12    13   ar
     4    13    14   ar
     5    14    15   ar
     6    15     4    1
     7     4     5   ar
     8     5     6   ar
     9     6     7   ar
    10     7     3    1
    11     3     2    1
    12     2     1    1
    13     1    16    1
    14    16    17    1
    15    17    18    1
    16    18    19    1
    17    19    20    1
    18    20    21    1
    19    21    23    1
    20    23    24   ar
    21    24    25   ar
    22    25    26   ar
    23    26    27    1
    24    26    28   ar
    25    28    29    1
    26    28    30   ar
    27    21    22    1
    28     7     8   ar
    29     8     9    1
    30    15    11   ar
    31     8     4   ar
    32    22    17    1
    33    21    19    1
    34    30    23   ar
@<TRIPOS>MOLECULE
*****
 30 34 0 0 0
SMALL
GASTEIGER

@<TRIPOS>ATOM
      1 C         141.5094  144.8965  162.1290 C.3     1  UNL1        0.0294
      2 C         140.1215  145.3826  161.8330 C.3     1  UNL1        0.0666
      3 S         138.9825  144.9891  162.7263 S.3     1  UNL1       -0.0756
      4 C         138.2271  141.2644  163.5144 C.ar    1  UNL1        0.2029
      5 N         137.4655  141.4503  162.2356 N.ar    1  UNL1       -0.1250
      6 N         137.6558  142.8681  161.7847 N.ar    1  UNL1       -0.1220
      7 C         138.5350  143.5586  162.7848 C.ar    1  UNL1        0.1933
      8 N         138.8881  142.5673  163.8538 N.ar    1  UNL1       -0.2860
      9 C         139.7508  142.8326  165.0519 C.3     1  UNL1        0.1341
     10 C         139.2445  138.3661  162.4123 C.3     1  UNL1        0.0556
     11 C         138.7804  138.6657  163.8069 C.ar    1  UNL1        0.1001
     12 N         138.7024  137.6856  164.9397 N.ar    1  UNL1       -0.2085
     13 C         138.1865  138.4120  166.1464 C.ar    1  UNL1        0.2849
     14 O         137.9457  139.8410  165.7594 O.2     1  UNL1       -0.4283
     15 C         138.3127  139.9978  164.3135 C.ar    1  UNL1        0.1964
     16 C         142.0118  143.6320  161.4978 C.3     1  UNL1        0.0730
     17 N         143.0046  142.7740  162.2246 N.3     1  UNL1       -0.2724
     18 C         144.3691  142.3935  161.7312 C.3     1  UNL1        0.0724
     19 C         145.0150  141.5302  162.7740 C.3     1  UNL1        0.0214
     20 C         145.3920  140.7106  163.9724 C.3     1  UNL1        0.0072
     21 C         144.0496  141.3771  163.9119 C.3     1  UNL1        0.0350
     22 C         142.8072  142.1458  163.5723 C.3     1  UNL1        0.0761
     23 C         143.5716  140.8882  165.2470 C.ar    1  UNL1       -0.0206
     24 C         143.5500  139.4180  165.5435 C.ar    1  UNL1       -0.0033
     25 C         143.0719  138.9291  166.8787 C.ar    1  UNL1        0.0119
     26 C         142.6154  139.9105  167.9172 C.ar    1  UNL1        0.0682
     27 CL        142.1374  139.4216  169.2523 Cl      1  UNL1       -0.0814
     28 C         142.6370  141.3808  167.6206 C.ar    1  UNL1        0.0679
     29 CL        142.1805  142.3621  168.6591 Cl      1  UNL1       -0.0814
     30 C         143.1151  141.8696  166.2855 C.ar    1  UNL1        0.0080
@<TRIPOS>BOND
     1    10    11    1
     2    11    12   ar
     3    12    13   ar
     4    13    14   ar
     5    14    15   ar
     6    15     4    1
     7     4     5   ar
     8     5     6   ar
     9     6     7   ar
    10     7     3    1
    11     3     2    1
    12     2     1    1
    13     1    16    1
    14    16    17    1
    15    17    18    1
    16    18    19    1
    17    19    20    1
    18    20    21    1
    19    21    23    1
    20    23    24   ar
    21    24    25   ar
    22    25    26   ar
    23    26    27    1
    24    26    28   ar
    25    28    29    1
    26    28    30   ar
    27    21    22    1
    28     7     8   ar
    29     8     9    1
    30    15    11   ar
    31     8     4   ar
    32    22    17    1
    33    21    19    1
    34    30    23   ar
@<TRIPOS>MOLECULE
*****
 30 34 0 0 0
SMALL
GASTEIGER

@<TRIPOS>ATOM
      1 C         144.1817  144.1254  164.6289 C.3     1  UNL1        0.0294
      2 C         143.6246  145.0479  163.5857 C.3     1  UNL1        0.0666
      3 S         142.1578  145.0270  163.2721 S.3     1  UNL1       -0.0756
      4 C         140.4506  141.5431  163.3831 C.ar    1  UNL1        0.2029
      5 N         139.7686  142.2365  164.5250 N.ar    1  UNL1       -0.1250
      6 N         140.3250  143.6260  164.6224 N.ar    1  UNL1       -0.1220
      7 C         141.3510  143.7913  163.5407 C.ar    1  UNL1        0.1933
      8 N         141.4286  142.5039  162.7748 N.ar    1  UNL1       -0.2860
      9 C         142.3266  142.2263  161.6058 C.3     1  UNL1        0.1341
     10 C         137.6265  140.3719  162.2418 C.3     1  UNL1        0.0556
     11 C         138.9007  139.5974  162.4046 C.ar    1  UNL1        0.1001
     12 N         139.1005  138.1486  162.0714 N.ar    1  UNL1       -0.2085
     13 C         140.5221  137.7915  162.3901 C.ar    1  UNL1        0.2849
     14 O         141.2008  139.0195  162.9202 O.2     1  UNL1       -0.4283
     15 C         140.1988  140.1357  162.9292 C.ar    1  UNL1        0.1964
     16 C         144.8684  142.8565  164.2185 C.3     1  UNL1        0.0730
     17 N         144.3498  141.5337  164.6993 N.3     1  UNL1       -0.2724
     18 C         144.8448  140.1841  164.2709 C.3     1  UNL1        0.0724
     19 C         144.0460  139.1445  164.9997 C.3     1  UNL1        0.0214
     20 C         143.1025  138.3525  165.8555 C.3     1  UNL1        0.0072
     21 C         143.0572  139.8516  165.8786 C.3     1  UNL1        0.0350
     22 C         143.2450  141.3282  165.6929 C.3     1  UNL1        0.0761
     23 C         141.9430  139.9595  166.8770 C.ar    1  UNL1       -0.0206
     24 C         142.2009  140.5617  168.2264 C.ar    1  UNL1       -0.0033
     25 C         141.0867  140.6696  169.2249 C.ar    1  UNL1        0.0119
     26 C         139.7146  140.1754  168.8740 C.ar    1  UNL1        0.0682
     27 CL        138.6004  140.2833  169.8724 Cl      1  UNL1       -0.0814
     28 C         139.4568  139.5731  167.5245 C.ar    1  UNL1        0.0679
     29 CL        138.0847  139.0789  167.1735 Cl      1  UNL1       -0.0814
     30 C         140.5710  139.4652  166.5261 C.ar    1  UNL1        0.0080
@<TRIPOS>BOND
     1    10    11    1
     2    11    12   ar
     3    12    13   ar
     4    13    14   ar
     5    14    15   ar
     6    15     4    1
     7     4     5   ar
     8     5     6   ar
     9     6     7   ar
    10     7     3    1
    11     3     2    1
    12     2     1    1
    13     1    16    1
    14    16    17    1
    15    17    18    1
    16    18    19    1
    17    19    20    1
    18    20    21    1
    19    21    23    1
    20    23    24   ar
    21    24    25   ar
    22    25    26   ar
    23    26    27    1
    24    26    28   ar
    25    28    29    1
    26    28    30   ar
    27    21    22    1
    28     7     8   ar
    29     8     9    1
    30    15    11   ar
    31     8     4   ar
    32    22    17    1
    33    21    19    1
    34    30    23   ar
@<TRIPOS>MOLECULE
*****
 30 34 0 0 0
SMALL
GASTEIGER

@<TRIPOS>ATOM
      1 C         140.5757  145.1733  159.9451 C.3     1  UNL1        0.0294
      2 C         140.0145  144.1813  158.9700 C.3     1  UNL1        0.0666
      3 S         139.9519  142.7269  159.3320 S.3     1  UNL1       -0.0756
      4 C         138.5018  141.1424  162.5648 C.ar    1  UNL1        0.2029
      5 N         137.3888  142.0677  162.1712 N.ar    1  UNL1       -0.1250
      6 N         137.7965  142.7739  160.9122 N.ar    1  UNL1       -0.1220
      7 C         139.1615  142.2850  160.5278 C.ar    1  UNL1        0.1933
      8 N         139.5974  141.2767  161.5492 N.ar    1  UNL1       -0.2860
      9 C         140.9002  140.5332  161.5541 C.3     1  UNL1        0.1341
     10 C         138.7173  137.8865  162.5144 C.3     1  UNL1        0.0556
     11 C         138.6156  138.7445  163.7406 C.ar    1  UNL1        0.1001
     12 N         138.5952  138.2565  165.1588 N.ar    1  UNL1       -0.2085
     13 C         138.4835  139.4515  166.0585 C.ar    1  UNL1        0.2849
     14 O         138.4349  140.6779  165.1964 O.2     1  UNL1       -0.4283
     15 C         138.5166  140.2410  163.7638 C.ar    1  UNL1        0.1964
     16 C         141.3465  144.6965  161.1403 C.3     1  UNL1        0.0730
     17 N         140.6617  144.5572  162.4676 N.3     1  UNL1       -0.2724
     18 C         139.4283  145.2904  162.9046 C.3     1  UNL1        0.0724
     19 C         139.0944  144.8467  164.2981 C.3     1  UNL1        0.0214
     20 C         139.0150  144.2224  165.6596 C.3     1  UNL1        0.0072
     21 C         140.1215  143.8392  164.7223 C.3     1  UNL1        0.0350
     22 C         141.0902  143.6603  163.5910 C.3     1  UNL1        0.0761
     23 C         140.7813  142.8622  165.6496 C.ar    1  UNL1       -0.0206
     24 C         140.4266  142.8546  167.1071 C.ar    1  UNL1       -0.0033
     25 C         141.0864  141.8775  168.0345 C.ar    1  UNL1        0.0119
     26 C         142.1009  140.9081  167.5045 C.ar    1  UNL1        0.0682
     27 CL        142.7607  139.9310  168.4319 Cl      1  UNL1       -0.0814
     28 C         142.4556  140.9157  166.0470 C.ar    1  UNL1        0.0679
     29 CL        143.4701  139.9462  165.5169 Cl      1  UNL1       -0.0814
     30 C         141.7958  141.8927  165.1196 C.ar    1  UNL1        0.0080
@<TRIPOS>BOND
     1    10    11    1
     2    11    12   ar
     3    12    13   ar
     4    13    14   ar
     5    14    15   ar
     6    15     4    1
     7     4     5   ar
     8     5     6   ar
     9     6     7   ar
    10     7     3    1
    11     3     2    1
    12     2     1    1
    13     1    16    1
    14    16    17    1
    15    17    18    1
    16    18    19    1
    17    19    20    1
    18    20    21    1
    19    21    23    1
    20    23    24   ar
    21    24    25   ar
    22    25    26   ar
    23    26    27    1
    24    26    28   ar
    25    28    29    1
    26    28    30   ar
    27    21    22    1
    28     7     8   ar
    29     8     9    1
    30    15    11   ar
    31     8     4   ar
    32    22    17    1
    33    21    19    1
    34    30    23   ar
@<TRIPOS>MOLECULE
*****
 30 34 0 0 0
SMALL
GASTEIGER

@<TRIPOS>ATOM
      1 C         138.8346  138.2281  162.1184 C.3     1  UNL1        0.0294
      2 C         137.7085  139.0711  161.5976 C.3     1  UNL1        0.0666
      3 S         137.8995  140.5477  161.4148 S.3     1  UNL1       -0.0756
      4 C         140.5475  142.5889  163.3862 C.ar    1  UNL1        0.2029
      5 N         139.4663  142.4457  164.4160 N.ar    1  UNL1       -0.1250
      6 N         138.3428  141.6637  163.8029 N.ar    1  UNL1       -0.1220
      7 C         138.7296  141.3235  162.3941 C.ar    1  UNL1        0.1933
      8 N         140.0922  141.8953  162.1366 N.ar    1  UNL1       -0.2860
      9 C         140.8639  141.7917  160.8545 C.3     1  UNL1        0.1341
     10 C         143.5018  141.2026  163.4007 C.3     1  UNL1        0.0556
     11 C         143.2124  142.6635  163.5799 C.ar    1  UNL1        0.1001
     12 N         144.2303  143.7437  163.7972 N.ar    1  UNL1       -0.2085
     13 C         143.5014  145.0484  163.9248 C.ar    1  UNL1        0.2849
     14 O         142.0332  144.7747  163.7864 O.2     1  UNL1       -0.4283
     15 C         141.8546  143.3007  163.5732 C.ar    1  UNL1        0.1964
     16 C         138.8930  137.8710  163.5741 C.3     1  UNL1        0.0730
     17 N         140.1498  138.1139  164.3561 N.3     1  UNL1       -0.2724
     18 C         141.4423  137.3686  164.2016 C.3     1  UNL1        0.0724
     19 C         142.4261  137.9389  165.1799 C.3     1  UNL1        0.0214
     20 C         143.1722  138.6982  166.2366 C.3     1  UNL1        0.0072
     21 C         141.7415  139.0367  165.9390 C.3     1  UNL1        0.0350
     22 C         140.3347  139.1448  165.4298 C.3     1  UNL1        0.0761
     23 C         141.6273  140.1383  166.9506 C.ar    1  UNL1       -0.0206
     24 C         142.6408  141.2439  166.9730 C.ar    1  UNL1       -0.0033
     25 C         142.5266  142.3457  167.9846 C.ar    1  UNL1        0.0119
     26 C         141.3989  142.3418  168.9737 C.ar    1  UNL1        0.0682
     27 CL        141.2847  143.4434  169.9853 Cl      1  UNL1       -0.0814
     28 C         140.3854  141.2361  168.9512 C.ar    1  UNL1        0.0679
     29 CL        139.2577  141.2322  169.9403 Cl      1  UNL1       -0.0814
     30 C         140.4996  140.1344  167.9396 C.ar    1  UNL1        0.0080
@<TRIPOS>BOND
     1    10    11    1
     2    11    12   ar
     3    12    13   ar
     4    13    14   ar
     5    14    15   ar
     6    15     4    1
     7     4     5   ar
     8     5     6   ar
     9     6     7   ar
    10     7     3    1
    11     3     2    1
    12     2     1    1
    13     1    16    1
    14    16    17    1
    15    17    18    1
    16    18    19    1
    17    19    20    1
    18    20    21    1
    19    21    23    1
    20    23    24   ar
    21    24    25   ar
    22    25    26   ar
    23    26    27    1
    24    26    28   ar
    25    28    29    1
    26    28    30   ar
    27    21    22    1
    28     7     8   ar
    29     8     9    1
    30    15    11   ar
    31     8     4   ar
    32    22    17    1
    33    21    19    1
    34    30    23   ar
@<TRIPOS>MOLECULE
*****
 30 34 0 0 0
SMALL
GASTEIGER

@<TRIPOS>ATOM
      1 C         140.4480  145.1608  162.3225 C.3     1  UNL1        0.0294
      2 C         139.0016  145.3740  162.6580 C.3     1  UNL1        0.0666
      3 S         138.1314  144.2022  163.0043 S.3     1  UNL1       -0.0756
      4 C         139.8120  140.7600  163.6300 C.ar    1  UNL1        0.2029
      5 N         139.5815  141.2298  165.0357 N.ar    1  UNL1       -0.1250
      6 N         138.9239  142.5764  164.9725 N.ar    1  UNL1       -0.1220
      7 C         138.7480  142.9389  163.5276 C.ar    1  UNL1        0.1933
      8 N         139.2969  141.8162  162.6979 N.ar    1  UNL1       -0.2860
      9 C         139.3255  141.7599  161.1992 C.3     1  UNL1        0.1341
     10 C         138.9491  137.7946  164.6845 C.3     1  UNL1        0.0556
     11 C         140.0497  138.0988  163.7117 C.ar    1  UNL1        0.1001
     12 N         140.9468  137.0933  163.0529 N.ar    1  UNL1       -0.2085
     13 C         141.8980  137.8349  162.1611 C.ar    1  UNL1        0.2849
     14 O         141.5886  139.2986  162.2687 O.2     1  UNL1       -0.4283
     15 C         140.4463  139.4617  163.2270 C.ar    1  UNL1        0.1964
     16 C         141.4996  145.3663  163.3722 C.3     1  UNL1        0.0730
     17 N         142.4954  144.2818  163.6587 N.3     1  UNL1       -0.2724
     18 C         143.7300  143.9850  162.8602 C.3     1  UNL1        0.0724
     19 C         144.4291  142.8234  163.5020 C.3     1  UNL1        0.0214
     20 C         144.8902  141.6735  164.3477 C.3     1  UNL1        0.0072
     21 C         143.6266  142.4022  164.6972 C.3     1  UNL1        0.0350
     22 C         142.4315  143.3035  164.7940 C.3     1  UNL1        0.0761
     23 C         143.2984  141.5763  165.9055 C.ar    1  UNL1       -0.0206
     24 C         143.1220  140.0925  165.7744 C.ar    1  UNL1       -0.0033
     25 C         142.7938  139.2665  166.9828 C.ar    1  UNL1        0.0119
     26 C         142.6421  139.9244  168.3223 C.ar    1  UNL1        0.0682
     27 CL        142.3139  139.0985  169.5307 Cl      1  UNL1       -0.0814
     28 C         142.8185  141.4083  168.4534 C.ar    1  UNL1        0.0679
     29 CL        142.6667  142.0662  169.7928 Cl      1  UNL1       -0.0814
     30 C         143.1467  142.2342  167.2450 C.ar    1  UNL1        0.0080
@<TRIPOS>BOND
     1    10    11    1
     2    11    12   ar
     3    12    13   ar
     4    13    14   ar
     5    14    15   ar
     6    15     4    1
     7     4     5   ar
     8     5     6   ar
     9     6     7   ar
    10     7     3    1
    11     3     2    1
    12     2     1    1
    13     1    16    1
    14    16    17    1
    15    17    18    1
    16    18    19    1
    17    19    20    1
    18    20    21    1
    19    21    23    1
    20    23    24   ar
    21    24    25   ar
    22    25    26   ar
    23    26    27    1
    24    26    28   ar
    25    28    29    1
    26    28    30   ar
    27    21    22    1
    28     7     8   ar
    29     8     9    1
    30    15    11   ar
    31     8     4   ar
    32    22    17    1
    33    21    19    1
    34    30    23   ar
@<TRIPOS>MOLECULE
*****
 30 34 0 0 0
SMALL
GASTEIGER

@<TRIPOS>ATOM
      1 C         143.1334  145.0842  163.5584 C.3     1  UNL1        0.0294
      2 C         141.6611  145.1079  163.8441 C.3     1  UNL1        0.0666
      3 S         140.6960  145.5241  162.7738 S.3     1  UNL1       -0.0756
      4 C         138.8339  142.6940  160.8794 C.ar    1  UNL1        0.2029
      5 N         137.7239  143.2651  161.7112 N.ar    1  UNL1       -0.1250
      6 N         138.2864  144.3947  162.5221 N.ar    1  UNL1       -0.1220
      7 C         139.7439  144.5218  162.1914 C.ar    1  UNL1        0.1933
      8 N         140.0823  143.4707  161.1762 N.ar    1  UNL1       -0.2860
      9 C         141.4321  143.2374  160.5650 C.3     1  UNL1        0.1341
     10 C         138.9609  139.5256  161.6504 C.3     1  UNL1        0.0556
     11 C         138.7744  140.0912  160.2737 C.ar    1  UNL1        0.1001
     12 N         138.6136  139.2997  159.0097 N.ar    1  UNL1       -0.2085
     13 C         138.4558  140.2670  157.8741 C.ar    1  UNL1        0.2849
     14 O         138.5191  141.6561  158.4363 O.2     1  UNL1       -0.4283
     15 C         138.7161  141.5475  159.9193 C.ar    1  UNL1        0.1964
     16 C         144.0642  144.3512  164.4782 C.3     1  UNL1        0.0730
     17 N         144.2529  142.8705  164.3303 N.3     1  UNL1       -0.2724
     18 C         145.5384  142.1747  163.9939 C.3     1  UNL1        0.0724
     19 C         145.2692  140.6998  163.9485 C.3     1  UNL1        0.0214
     20 C         144.7066  139.3095  163.9746 C.3     1  UNL1        0.0072
     21 C         143.8172  140.4839  164.2569 C.3     1  UNL1        0.0350
     22 C         143.1891  141.8255  164.4929 C.3     1  UNL1        0.0761
     23 C         142.5675  139.6845  164.4785 C.ar    1  UNL1       -0.0206
     24 C         142.3983  138.3551  163.8046 C.ar    1  UNL1       -0.0033
     25 C         141.1485  137.5556  164.0262 C.ar    1  UNL1        0.0119
     26 C         140.0680  138.0856  164.9216 C.ar    1  UNL1        0.0682
     27 CL        138.8183  137.2862  165.1432 Cl      1  UNL1       -0.0814
     28 C         140.2374  139.4150  165.5955 C.ar    1  UNL1        0.0679
     29 CL        139.1569  139.9450  166.4909 Cl      1  UNL1       -0.0814
     30 C         141.4871  140.2145  165.3739 C.ar    1  UNL1        0.0080
@<TRIPOS>BOND
     1    10    11    1
     2    11    12   ar
     3    12    13   ar
     4    13    14   ar
     5    14    15   ar
     6    15     4    1
     7     4     5   ar
     8     5     6   ar
     9     6     7   ar
    10     7     3    1
    11     3     2    1
    12     2     1    1
    13     1    16    1
    14    16    17    1
    15    17    18    1
    16    18    19    1
    17    19    20    1
    18    20    21    1
    19    21    23    1
    20    23    24   ar
    21    24    25   ar
    22    25    26   ar
    23    26    27    1
    24    26    28   ar
    25    28    29    1
    26    28    30   ar
    27    21    22    1
    28     7     8   ar
    29     8     9    1
    30    15    11   ar
    31     8     4   ar
    32    22    17    1
    33    21    19    1
    34    30    23   ar
@<TRIPOS>MOLECULE
*****
 30 34 0 0 0
SMALL
GASTEIGER

@<TRIPOS>ATOM
      1 C         143.6829  143.2039  161.2391 C.3     1  UNL1        0.0294
      2 C         144.5220  143.1194  162.4796 C.3     1  UNL1        0.0666
      3 S         144.4310  141.9125  163.3658 S.3     1  UNL1       -0.0756
      4 C         143.1873  141.6082  167.0299 C.ar    1  UNL1        0.2029
      5 N         143.7301  143.0066  167.0232 N.ar    1  UNL1       -0.1250
      6 N         144.2620  143.2907  165.6499 N.ar    1  UNL1       -0.1220
      7 C         144.0480  142.0681  164.8077 C.ar    1  UNL1        0.1933
      8 N         143.3838  141.0282  165.6607 N.ar    1  UNL1       -0.2860
      9 C         142.9860  139.6502  165.2214 C.3     1  UNL1        0.1341
     10 C         140.8529  142.8258  168.9581 C.3     1  UNL1        0.0556
     11 C         141.4855  141.4717  169.0866 C.ar    1  UNL1        0.1001
     12 N         141.1560  140.4397  170.1241 N.ar    1  UNL1       -0.2085
     13 C         142.0254  139.2422  169.8790 C.ar    1  UNL1        0.2849
     14 O         142.8921  139.5341  168.6901 O.2     1  UNL1       -0.4283
     15 C         142.5584  140.9121  168.2004 C.ar    1  UNL1        0.1964
     16 C         142.3142  143.8147  161.2996 C.3     1  UNL1        0.0730
     17 N         141.5005  143.7089  162.5553 N.3     1  UNL1       -0.2724
     18 C         141.1330  144.8427  163.4659 C.3     1  UNL1        0.0724
     19 C         140.3168  144.2853  164.5943 C.3     1  UNL1        0.0214
     20 C         139.5437  143.4544  165.5750 C.3     1  UNL1        0.0072
     21 C         140.1800  142.8068  164.3810 C.3     1  UNL1        0.0350
     22 C         140.9115  142.4506  163.1209 C.3     1  UNL1        0.0761
     23 C         139.7240  141.4132  164.6969 C.ar    1  UNL1       -0.0206
     24 C         139.4484  141.0182  166.1174 C.ar    1  UNL1       -0.0033
     25 C         138.9924  139.6244  166.4334 C.ar    1  UNL1        0.0119
     26 C         138.8120  138.6258  165.3287 C.ar    1  UNL1        0.0682
     27 CL        138.3560  137.2322  165.6446 Cl      1  UNL1       -0.0814
     28 C         139.0876  139.0209  163.9081 C.ar    1  UNL1        0.0679
     29 CL        138.9073  138.0223  162.8034 Cl      1  UNL1       -0.0814
     30 C         139.5436  140.4146  163.5922 C.ar    1  UNL1        0.0080
@<TRIPOS>BOND
     1    10    11    1
     2    11    12   ar
     3    12    13   ar
     4    13    14   ar
     5    14    15   ar
     6    15     4    1
     7     4     5   ar
     8     5     6   ar
     9     6     7   ar
    10     7     3    1
    11     3     2    1
    12     2     1    1
    13     1    16    1
    14    16    17    1
    15    17    18    1
    16    18    19    1
    17    19    20    1
    18    20    21    1
    19    21    23    1
    20    23    24   ar
    21    24    25   ar
    22    25    26   ar
    23    26    27    1
    24    26    28   ar
    25    28    29    1
    26    28    30   ar
    27    21    22    1
    28     7     8   ar
    29     8     9    1
    30    15    11   ar
    31     8     4   ar
    32    22    17    1
    33    21    19    1
    34    30    23   ar
@<TRIPOS>MOLECULE
*****
 30 34 0 0 0
SMALL
GASTEIGER

@<TRIPOS>ATOM
      1 C         139.6862  137.5159  164.7507 C.3     1  UNL1        0.0294
      2 C         139.1547  138.8347  164.2730 C.3     1  UNL1        0.0666
      3 S         138.5532  139.7997  165.2514 S.3     1  UNL1       -0.0756
      4 C         140.6976  140.8669  168.3055 C.ar    1  UNL1        0.2029
      5 N         139.7489  139.8954  168.9427 N.ar    1  UNL1       -0.1250
      6 N         138.8302  139.3773  167.8763 N.ar    1  UNL1       -0.1220
      7 C         139.2110  140.0287  166.5799 C.ar    1  UNL1        0.1933
      8 N         140.3652  140.9493  166.8452 N.ar    1  UNL1       -0.2860
      9 C         141.0641  141.8025  165.8285 C.3     1  UNL1        0.1341
     10 C         140.3566  143.7048  169.8803 C.3     1  UNL1        0.0556
     11 C         141.6307  142.9276  169.7295 C.ar    1  UNL1        0.1001
     12 N         142.9717  143.3185  170.2761 N.ar    1  UNL1       -0.2085
     13 C         143.9573  142.2557  169.8901 C.ar    1  UNL1        0.2849
     14 O         143.2254  141.2080  169.1050 O.2     1  UNL1       -0.4283
     15 C         141.7875  141.6233  169.0057 C.ar    1  UNL1        0.1964
     16 C         141.0915  137.1092  164.4194 C.3     1  UNL1        0.0730
     17 N         142.1815  138.1390  164.3831 N.3     1  UNL1       -0.2724
     18 C         143.0673  138.5261  165.5300 C.3     1  UNL1        0.0724
     19 C         144.0104  139.5889  165.0492 C.3     1  UNL1        0.0214
     20 C         144.8029  140.6156  164.2957 C.3     1  UNL1        0.0072
     21 C         143.7075  139.8586  163.6051 C.3     1  UNL1        0.0350
     22 C         142.5772  138.9625  163.1934 C.3     1  UNL1        0.0761
     23 C         143.8741  140.5238  162.2711 C.ar    1  UNL1       -0.0206
     24 C         144.3554  141.9425  162.1954 C.ar    1  UNL1       -0.0033
     25 C         144.5220  142.6078  160.8613 C.ar    1  UNL1        0.0119
     26 C         144.2073  141.8544  159.6029 C.ar    1  UNL1        0.0682
     27 CL        144.3739  142.5196  158.2689 Cl      1  UNL1       -0.0814
     28 C         143.7260  140.4356  159.6787 C.ar    1  UNL1        0.0679
     29 CL        143.4114  139.6822  158.4204 Cl      1  UNL1       -0.0814
     30 C         143.5594  139.7704  161.0127 C.ar    1  UNL1        0.0080
@<TRIPOS>BOND
     1    10    11    1
     2    11    12   ar
     3    12    13   ar
     4    13    14   ar
     5    14    15   ar
     6    15     4    1
     7     4     5   ar
     8     5     6   ar
     9     6     7   ar
    10     7     3    1
    11     3     2    1
    12     2     1    1
    13     1    16    1
    14    16    17    1
    15    17    18    1
    16    18    19    1
    17    19    20    1
    18    20    21    1
    19    21    23    1
    20    23    24   ar
    21    24    25   ar
    22    25    26   ar
    23    26    27    1
    24    26    28   ar
    25    28    29    1
    26    28    30   ar
    27    21    22    1
    28     7     8   ar
    29     8     9    1
    30    15    11   ar
    31     8     4   ar
    32    22    17    1
    33    21    19    1
    34    30    23   ar
