@<TRIPOS>MOLECULE
*****
 37 40 0 0 0
SMALL
GASTEIGER

@<TRIPOS>ATOM
      1 N         140.9974  140.5665  163.8276 N.ar    1  UNL1       -0.1967
      2 N         141.2054  141.7444  164.7327 N.ar    1  UNL1       -0.1666
      3 C         140.4026  141.5184  165.9794 C.ar    1  UNL1        0.0849
      4 C         139.6984  140.2009  165.8448 C.ar    1  UNL1        0.0334
      5 C         138.7699  139.4608  166.7614 C.ar    1  UNL1        0.0027
      6 C         138.2090  138.1325  166.3481 C.ar    1  UNL1        0.0001
      7 C         138.5766  137.5442  165.0182 C.ar    1  UNL1        0.0015
      8 C         139.5051  138.2842  164.1016 C.ar    1  UNL1        0.0193
      9 C         140.0660  139.6126  164.5149 C.ar    1  UNL1        0.0870
     10 C         142.8435  139.9949  159.7636 C.ar    1  UNL1        0.1194
     11 C         141.6241  140.8545  159.9193 C.ar    1  UNL1        0.1452
     12 N         141.0201  141.5235  158.7204 N.pl3   1  UNL1       -0.3415
     13 N         141.0088  141.0450  161.2740 N.ar    1  UNL1       -0.1940
     14 C         141.6127  140.3760  162.4729 C.ar    1  UNL1        0.2554
     15 N         142.8322  139.5164  162.3172 N.ar    1  UNL1       -0.1940
     16 C         143.4475  139.3259  160.9626 C.ar    1  UNL1        0.1452
     17 N         144.6668  138.4663  160.8070 N.pl3   1  UNL1       -0.3415
     18 H         141.4239  141.3985  157.8313 H       1  UNL1        0.1438
     19 H         140.2198  142.0877  158.8225 H       1  UNL1        0.1438
     20 H         145.0633  138.0272  161.5939 H       1  UNL1        0.1438
     21 H         145.0707  138.3412  159.9179 H       1  UNL1        0.1438
     22 C         143.0797  138.6179  157.5733 C.2     1  UNL1        0.4090
     23 O         142.0854  137.6219  158.0922 O.2     1  UNL1       -0.2258
     24 N         143.4588  139.8044  158.4090 N.am    1  UNL1       -0.2181
     25 C         144.4531  140.8004  157.8901 C.3     1  UNL1        0.1237
     26 C         143.8975  137.0441  155.6746 C.3     1  UNL1        0.2574
     27 O         143.6950  138.4273  156.2186 O.3     1  UNL1       -0.4302
     28 C         140.3187  142.4470  167.1545 C.3     1  UNL1        0.0763
     29 C         141.1064  142.1566  168.3976 C.ar    1  UNL1        0.0158
     30 C         142.5581  142.5272  168.4693 C.ar    1  UNL1        0.0281
     31 C         143.3459  142.2369  169.7123 C.ar    1  UNL1        0.1422
     32 F         144.7976  142.6075  169.7839 F       1  UNL1       -0.2041
     33 C         142.6818  141.5760  170.8837 C.ar    1  UNL1        0.0616
     34 C         141.2301  141.2054  170.8120 C.ar    1  UNL1        0.1693
     35 F         140.5661  140.5444  171.9834 F       1  UNL1       -0.2017
     36 C         140.4424  141.4957  169.5690 C.ar    1  UNL1        0.1639
     37 F         138.9907  141.1251  169.4974 F       1  UNL1       -0.2021
@<TRIPOS>BOND
     1    26    27    1
     2    27    22    1
     3    22    23    2
     4    22    24   am
     5    24    25    1
     6    24    10    1
     7    10    11   ar
     8    11    12    1
     9    11    13   ar
    10    13    14   ar
    11    14     1    1
    12     1     2   ar
    13     2     3   ar
    14     3    28    1
    15    28    29    1
    16    29    30   ar
    17    30    31   ar
    18    31    32    1
    19    31    33   ar
    20    33    34   ar
    21    34    35    1
    22    34    36   ar
    23    36    37    1
    24     3     4   ar
    25     4     5   ar
    26     5     6   ar
    27     6     7   ar
    28     7     8   ar
    29     8     9   ar
    30    14    15   ar
    31    15    16   ar
    32    16    17    1
    33    16    10   ar
    34     9     1   ar
    35    36    29   ar
    36     9     4   ar
    37    12    18    1
    38    12    19    1
    39    17    20    1
    40    17    21    1
@<TRIPOS>MOLECULE
*****
 37 40 0 0 0
SMALL
GASTEIGER

@<TRIPOS>ATOM
      1 N         140.7676  140.2182  163.9379 N.ar    1  UNL1       -0.1967
      2 N         141.0399  141.4461  164.7553 N.ar    1  UNL1       -0.1666
      3 C         140.2736  141.3274  166.0393 C.ar    1  UNL1        0.0849
      4 C         139.5278  140.0262  166.0155 C.ar    1  UNL1        0.0334
      5 C         138.6101  139.3771  167.0087 C.ar    1  UNL1        0.0027
      6 C         137.9977  138.0423  166.7031 C.ar    1  UNL1        0.0001
      7 C         138.3030  137.3568  165.4043 C.ar    1  UNL1        0.0015
      8 C         139.2207  138.0059  164.4112 C.ar    1  UNL1        0.0193
      9 C         139.8331  139.3407  164.7168 C.ar    1  UNL1        0.0870
     10 C         142.4575  139.3240  159.8642 C.ar    1  UNL1        0.1194
     11 C         143.2421  138.9764  161.0945 C.ar    1  UNL1        0.1452
     12 N         144.5900  138.3307  160.9669 N.pl3   1  UNL1       -0.3415
     13 N         142.6787  139.2744  162.4524 N.ar    1  UNL1       -0.1940
     14 C         141.3309  139.9201  162.5800 C.ar    1  UNL1        0.2554
     15 N         140.5463  140.2678  161.3497 N.ar    1  UNL1       -0.1940
     16 C         141.1097  139.9697  159.9918 C.ar    1  UNL1        0.1452
     17 N         140.3251  140.3173  158.7616 N.pl3   1  UNL1       -0.3415
     18 H         144.9597  138.1350  160.0757 H       1  UNL1        0.1438
     19 H         145.1049  138.1025  161.7744 H       1  UNL1        0.1438
     20 H         139.4404  140.7411  158.8454 H       1  UNL1        0.1438
     21 H         140.6947  140.1217  157.8703 H       1  UNL1        0.1438
     22 C         143.8826  140.0391  157.8130 C.2     1  UNL1        0.4090
     23 O         144.1810  141.3504  158.4775 O.2     1  UNL1       -0.2258
     24 N         143.0209  139.0259  158.5063 N.am    1  UNL1       -0.2181
     25 C         142.7225  137.7146  157.8419 C.3     1  UNL1        0.1237
     26 C         145.5996  140.5427  155.9292 C.3     1  UNL1        0.2574
     27 O         144.4460  139.7411  156.4551 O.3     1  UNL1       -0.4302
     28 C         140.2562  142.3334  167.1519 C.3     1  UNL1        0.0763
     29 C         141.0648  142.0937  168.3925 C.ar    1  UNL1        0.0158
     30 C         142.5143  142.4778  168.4288 C.ar    1  UNL1        0.0281
     31 C         143.3228  142.2381  169.6693 C.ar    1  UNL1        0.1422
     32 F         144.7723  142.6221  169.7057 F       1  UNL1       -0.2041
     33 C         142.6817  141.6144  170.8735 C.ar    1  UNL1        0.0616
     34 C         141.2322  141.2303  170.8371 C.ar    1  UNL1        0.1693
     35 F         140.5911  140.6066  172.0412 F       1  UNL1       -0.2017
     36 C         140.4237  141.4700  169.5966 C.ar    1  UNL1        0.1639
     37 F         138.9741  141.0859  169.5602 F       1  UNL1       -0.2021
@<TRIPOS>BOND
     1    26    27    1
     2    27    22    1
     3    22    23    2
     4    22    24   am
     5    24    25    1
     6    24    10    1
     7    10    11   ar
     8    11    12    1
     9    11    13   ar
    10    13    14   ar
    11    14     1    1
    12     1     2   ar
    13     2     3   ar
    14     3    28    1
    15    28    29    1
    16    29    30   ar
    17    30    31   ar
    18    31    32    1
    19    31    33   ar
    20    33    34   ar
    21    34    35    1
    22    34    36   ar
    23    36    37    1
    24     3     4   ar
    25     4     5   ar
    26     5     6   ar
    27     6     7   ar
    28     7     8   ar
    29     8     9   ar
    30    14    15   ar
    31    15    16   ar
    32    16    17    1
    33    16    10   ar
    34     9     1   ar
    35    36    29   ar
    36     9     4   ar
    37    12    18    1
    38    12    19    1
    39    17    20    1
    40    17    21    1
@<TRIPOS>MOLECULE
*****
 37 40 0 0 0
SMALL
GASTEIGER

@<TRIPOS>ATOM
      1 N         142.1382  142.6438  162.7903 N.ar    1  UNL1       -0.1967
      2 N         142.8678  142.1441  164.0019 N.ar    1  UNL1       -0.1666
      3 C         142.0777  142.5391  165.2142 C.ar    1  UNL1        0.0849
      4 C         140.8600  143.2829  164.7519 C.ar    1  UNL1        0.0334
      5 C         139.7219  143.9096  165.5015 C.ar    1  UNL1        0.0027
      6 C         138.6212  144.6010  164.7530 C.ar    1  UNL1        0.0001
      7 C         138.6586  144.6658  163.2549 C.ar    1  UNL1        0.0015
      8 C         139.7966  144.0391  162.5053 C.ar    1  UNL1        0.0193
      9 C         140.8973  143.3476  163.2538 C.ar    1  UNL1        0.0870
     10 C         143.4432  142.1229  158.5152 C.ar    1  UNL1        0.1194
     11 C         142.9784  143.4644  158.9994 C.ar    1  UNL1        0.1452
     12 N         142.9486  144.6323  158.0585 N.pl3   1  UNL1       -0.3415
     13 N         142.5434  143.6380  160.4244 N.ar    1  UNL1       -0.1940
     14 C         142.5732  142.4702  161.3652 C.ar    1  UNL1        0.2554
     15 N         143.0380  141.1287  160.8810 N.ar    1  UNL1       -0.1940
     16 C         143.4729  140.9551  159.4560 C.ar    1  UNL1        0.1452
     17 N         143.9377  139.6136  158.9719 N.pl3   1  UNL1       -0.3415
     18 H         143.2341  144.5183  157.1232 H       1  UNL1        0.1438
     19 H         142.6436  145.5127  158.3763 H       1  UNL1        0.1438
     20 H         143.9572  138.8471  159.5895 H       1  UNL1        0.1438
     21 H         144.2231  139.4996  158.0367 H       1  UNL1        0.1438
     22 C         145.3037  142.2111  156.7040 C.2     1  UNL1        0.4090
     23 O         146.2943  142.6464  157.7429 O.2     1  UNL1       -0.2258
     24 N         143.8781  141.9493  157.0902 N.am    1  UNL1       -0.2181
     25 C         142.8875  141.5140  156.0513 C.3     1  UNL1        0.1237
     26 C         147.1963  142.0886  154.9282 C.3     1  UNL1        0.2574
     27 O         145.7388  142.0375  155.2790 O.3     1  UNL1       -0.4302
     28 C         142.4416  142.2424  166.6389 C.3     1  UNL1        0.0763
     29 C         141.4132  141.6777  167.5736 C.ar    1  UNL1        0.0158
     30 C         140.4817  140.6009  167.1018 C.ar    1  UNL1        0.0281
     31 C         139.4533  140.0361  168.0364 C.ar    1  UNL1        0.1422
     32 F         138.5218  138.9593  167.5645 F       1  UNL1       -0.2041
     33 C         139.3566  140.5483  169.4429 C.ar    1  UNL1        0.0616
     34 C         140.2881  141.6251  169.9148 C.ar    1  UNL1        0.1693
     35 F         140.1914  142.1372  171.3213 F       1  UNL1       -0.2017
     36 C         141.3165  142.1898  168.9802 C.ar    1  UNL1        0.1639
     37 F         142.2480  143.2666  169.4520 F       1  UNL1       -0.2021
@<TRIPOS>BOND
     1    26    27    1
     2    27    22    1
     3    22    23    2
     4    22    24   am
     5    24    25    1
     6    24    10    1
     7    10    11   ar
     8    11    12    1
     9    11    13   ar
    10    13    14   ar
    11    14     1    1
    12     1     2   ar
    13     2     3   ar
    14     3    28    1
    15    28    29    1
    16    29    30   ar
    17    30    31   ar
    18    31    32    1
    19    31    33   ar
    20    33    34   ar
    21    34    35    1
    22    34    36   ar
    23    36    37    1
    24     3     4   ar
    25     4     5   ar
    26     5     6   ar
    27     6     7   ar
    28     7     8   ar
    29     8     9   ar
    30    14    15   ar
    31    15    16   ar
    32    16    17    1
    33    16    10   ar
    34     9     1   ar
    35    36    29   ar
    36     9     4   ar
    37    12    18    1
    38    12    19    1
    39    17    20    1
    40    17    21    1
@<TRIPOS>MOLECULE
*****
 37 40 0 0 0
SMALL
GASTEIGER

@<TRIPOS>ATOM
      1 N         141.4608  143.6331  162.1377 N.ar    1  UNL1       -0.1967
      2 N         140.5348  143.7408  163.3128 N.ar    1  UNL1       -0.1666
      3 C         141.2728  143.2662  164.5294 C.ar    1  UNL1        0.0849
      4 C         142.6548  142.8652  164.1062 C.ar    1  UNL1        0.0334
      5 C         143.8225  142.3229  164.8759 C.ar    1  UNL1        0.0027
      6 C         145.1063  142.0073  164.1674 C.ar    1  UNL1        0.0001
      7 C         145.2226  142.2341  162.6892 C.ar    1  UNL1        0.0015
      8 C         144.0549  142.7764  161.9195 C.ar    1  UNL1        0.0193
      9 C         142.7711  143.0920  162.6280 C.ar    1  UNL1        0.0870
     10 C         140.4805  144.7394  157.8873 C.ar    1  UNL1        0.1194
     11 C         139.5943  143.7908  158.6389 C.ar    1  UNL1        0.1452
     12 N         138.3813  143.2110  157.9737 N.pl3   1  UNL1       -0.3415
     13 N         139.9211  143.4221  160.0557 N.ar    1  UNL1       -0.1940
     14 C         141.1340  144.0019  160.7209 C.ar    1  UNL1        0.2554
     15 N         142.0203  144.9505  159.9692 N.ar    1  UNL1       -0.1940
     16 C         141.6934  145.3192  158.5525 C.ar    1  UNL1        0.1452
     17 N         142.5797  146.2677  157.8009 N.pl3   1  UNL1       -0.3415
     18 H         138.1668  143.4530  157.0439 H       1  UNL1        0.1438
     19 H         137.7997  142.5885  158.4670 H       1  UNL1        0.1438
     20 H         143.3758  146.6483  158.2376 H       1  UNL1        0.1438
     21 H         142.3652  146.5098  156.8711 H       1  UNL1        0.1438
     22 C         139.4798  146.4145  156.1720 C.2     1  UNL1        0.4090
     23 O         139.1327  147.3522  157.2902 O.2     1  UNL1       -0.2258
     24 N         140.1536  145.1081  156.4705 N.am    1  UNL1       -0.2181
     25 C         140.5007  144.1705  155.3524 C.3     1  UNL1        0.1237
     26 C         140.0172  147.7615  154.0163 C.3     1  UNL1        0.2574
     27 O         139.1529  146.7833  154.7552 O.3     1  UNL1       -0.4302
     28 C         140.7248  143.2036  165.9243 C.3     1  UNL1        0.0763
     29 C         140.1182  141.9304  166.4354 C.ar    1  UNL1        0.0158
     30 C         139.3570  141.0352  165.5031 C.ar    1  UNL1        0.0281
     31 C         138.7504  139.7621  166.0141 C.ar    1  UNL1        0.1422
     32 F         137.9892  138.8669  165.0818 F       1  UNL1       -0.2041
     33 C         138.9049  139.3842  167.4574 C.ar    1  UNL1        0.0616
     34 C         139.6661  140.2794  168.3898 C.ar    1  UNL1        0.1693
     35 F         139.8206  139.9015  169.8331 F       1  UNL1       -0.2017
     36 C         140.2727  141.5525  167.8788 C.ar    1  UNL1        0.1639
     37 F         141.0339  142.4477  168.8111 F       1  UNL1       -0.2021
@<TRIPOS>BOND
     1    26    27    1
     2    27    22    1
     3    22    23    2
     4    22    24   am
     5    24    25    1
     6    24    10    1
     7    10    11   ar
     8    11    12    1
     9    11    13   ar
    10    13    14   ar
    11    14     1    1
    12     1     2   ar
    13     2     3   ar
    14     3    28    1
    15    28    29    1
    16    29    30   ar
    17    30    31   ar
    18    31    32    1
    19    31    33   ar
    20    33    34   ar
    21    34    35    1
    22    34    36   ar
    23    36    37    1
    24     3     4   ar
    25     4     5   ar
    26     5     6   ar
    27     6     7   ar
    28     7     8   ar
    29     8     9   ar
    30    14    15   ar
    31    15    16   ar
    32    16    17    1
    33    16    10   ar
    34     9     1   ar
    35    36    29   ar
    36     9     4   ar
    37    12    18    1
    38    12    19    1
    39    17    20    1
    40    17    21    1
@<TRIPOS>MOLECULE
*****
 37 40 0 0 0
SMALL
GASTEIGER

@<TRIPOS>ATOM
      1 N         142.1366  142.7206  162.7380 N.ar    1  UNL1       -0.1967
      2 N         142.8802  142.2077  163.9354 N.ar    1  UNL1       -0.1666
      3 C         142.1017  142.5844  165.1609 C.ar    1  UNL1        0.0849
      4 C         140.8768  143.3302  164.7209 C.ar    1  UNL1        0.0334
      5 C         139.7447  143.9435  165.4903 C.ar    1  UNL1        0.0027
      6 C         138.6341  144.6410  164.7623 C.ar    1  UNL1        0.0001
      7 C         138.6557  144.7252  163.2648 C.ar    1  UNL1        0.0015
      8 C         139.7878  144.1119  162.4954 C.ar    1  UNL1        0.0193
      9 C         140.8984  143.4144  163.2234 C.ar    1  UNL1        0.0870
     10 C         143.3985  142.2593  158.4432 C.ar    1  UNL1        0.1194
     11 C         143.4522  141.0822  159.3713 C.ar    1  UNL1        0.1452
     12 N         143.9266  139.7512  158.8678 N.pl3   1  UNL1       -0.3415
     13 N         143.0316  141.2360  160.8029 N.ar    1  UNL1       -0.1940
     14 C         142.5572  142.5668  161.3064 C.ar    1  UNL1        0.2554
     15 N         142.5034  143.7441  160.3783 N.ar    1  UNL1       -0.1940
     16 C         142.9241  143.5903  158.9467 C.ar    1  UNL1        0.1452
     17 N         142.8703  144.7675  158.0187 N.pl3   1  UNL1       -0.3415
     18 H         144.2027  139.6503  157.9282 H       1  UNL1        0.1438
     19 H         143.9619  138.9786  159.4769 H       1  UNL1        0.1438
     20 H         142.5589  145.6410  158.3492 H       1  UNL1        0.1438
     21 H         143.1463  144.6666  157.0790 H       1  UNL1        0.1438
     22 C         145.2543  142.3083  156.6258 C.2     1  UNL1        0.4090
     23 O         146.2689  142.6649  157.6714 O.2     1  UNL1       -0.2258
     24 N         143.8191  142.1056  157.0116 N.am    1  UNL1       -0.2181
     25 C         142.8045  141.7490  155.9659 C.3     1  UNL1        0.1237
     26 C         146.4634  140.9513  154.7692 C.3     1  UNL1        0.2574
     27 O         145.6751  142.1545  155.1942 O.3     1  UNL1       -0.4302
     28 C         142.4813  142.2705  166.5777 C.3     1  UNL1        0.0763
     29 C         141.4400  141.7886  167.5440 C.ar    1  UNL1        0.0158
     30 C         141.2841  142.4610  168.8758 C.ar    1  UNL1        0.0281
     31 C         140.2429  141.9792  169.8420 C.ar    1  UNL1        0.1422
     32 F         140.0871  142.6516  171.1738 F       1  UNL1       -0.2041
     33 C         139.3575  140.8249  169.4765 C.ar    1  UNL1        0.0616
     34 C         139.5133  140.1525  168.1447 C.ar    1  UNL1        0.1693
     35 F         138.6279  138.9982  167.7792 F       1  UNL1       -0.2017
     36 C         140.5545  140.6343  167.1785 C.ar    1  UNL1        0.1639
     37 F         140.7103  139.9619  165.8467 F       1  UNL1       -0.2021
@<TRIPOS>BOND
     1    26    27    1
     2    27    22    1
     3    22    23    2
     4    22    24   am
     5    24    25    1
     6    24    10    1
     7    10    11   ar
     8    11    12    1
     9    11    13   ar
    10    13    14   ar
    11    14     1    1
    12     1     2   ar
    13     2     3   ar
    14     3    28    1
    15    28    29    1
    16    29    30   ar
    17    30    31   ar
    18    31    32    1
    19    31    33   ar
    20    33    34   ar
    21    34    35    1
    22    34    36   ar
    23    36    37    1
    24     3     4   ar
    25     4     5   ar
    26     5     6   ar
    27     6     7   ar
    28     7     8   ar
    29     8     9   ar
    30    14    15   ar
    31    15    16   ar
    32    16    17    1
    33    16    10   ar
    34     9     1   ar
    35    36    29   ar
    36     9     4   ar
    37    12    18    1
    38    12    19    1
    39    17    20    1
    40    17    21    1
@<TRIPOS>MOLECULE
*****
 37 40 0 0 0
SMALL
GASTEIGER

@<TRIPOS>ATOM
      1 N         141.0714  141.3074  162.9835 N.ar    1  UNL1       -0.1967
      2 N         141.8855  141.5583  164.2181 N.ar    1  UNL1       -0.1666
      3 C         141.5995  140.4556  165.1939 C.ar    1  UNL1        0.0849
      4 C         140.6086  139.5232  164.5624 C.ar    1  UNL1        0.0334
      5 C         139.9613  138.2629  165.0548 C.ar    1  UNL1        0.0027
      6 C         138.9877  137.5290  164.1811 C.ar    1  UNL1        0.0001
      7 C         138.6613  138.0555  162.8150 C.ar    1  UNL1        0.0015
      8 C         139.3086  139.3158  162.3225 C.ar    1  UNL1        0.0193
      9 C         140.2822  140.0497  163.1962 C.ar    1  UNL1        0.0870
     10 C         141.0078  143.8769  159.2897 C.ar    1  UNL1        0.1194
     11 C         141.6721  142.5325  159.2567 C.ar    1  UNL1        0.1452
     12 N         142.3153  142.0445  157.9925 N.pl3   1  UNL1       -0.3415
     13 N         141.6933  141.6760  160.4880 N.ar    1  UNL1       -0.1940
     14 C         141.0502  142.1639  161.7522 C.ar    1  UNL1        0.2554
     15 N         140.3858  143.5084  161.7852 N.ar    1  UNL1       -0.1940
     16 C         140.3646  144.3649  160.5539 C.ar    1  UNL1        0.1452
     17 N         139.7003  145.7093  160.5869 N.pl3   1  UNL1       -0.3415
     18 H         142.3013  142.6066  157.1844 H       1  UNL1        0.1438
     19 H         142.7513  141.1621  157.9709 H       1  UNL1        0.1438
     20 H         139.2782  146.0295  161.4167 H       1  UNL1        0.1438
     21 H         139.6863  146.2715  159.7788 H       1  UNL1        0.1438
     22 C         139.8860  144.5727  157.0520 C.2     1  UNL1        0.4090
     23 O         138.8066  143.5557  157.2769 O.2     1  UNL1       -0.2258
     24 N         140.9866  144.7334  158.0584 N.am    1  UNL1       -0.2181
     25 C         142.0659  145.7504  157.8336 C.3     1  UNL1        0.1237
     26 C         139.0397  146.6816  155.7923 C.3     1  UNL1        0.2574
     27 O         139.8647  145.4292  155.8207 O.3     1  UNL1       -0.4302
     28 C         142.1990  140.3107  166.5612 C.3     1  UNL1        0.0763
     29 C         141.5062  140.9064  167.7509 C.ar    1  UNL1        0.0158
     30 C         140.2426  140.2875  168.2707 C.ar    1  UNL1        0.0281
     31 C         139.5498  140.8831  169.4603 C.ar    1  UNL1        0.1422
     32 F         138.2862  140.2642  169.9800 F       1  UNL1       -0.2041
     33 C         140.1207  142.0977  170.1302 C.ar    1  UNL1        0.0616
     34 C         141.3844  142.7166  169.6105 C.ar    1  UNL1        0.1693
     35 F         141.9553  143.9312  170.2804 F       1  UNL1       -0.2017
     36 C         142.0772  142.1210  168.4209 C.ar    1  UNL1        0.1639
     37 F         143.3408  142.7399  167.9011 F       1  UNL1       -0.2021
@<TRIPOS>BOND
     1    26    27    1
     2    27    22    1
     3    22    23    2
     4    22    24   am
     5    24    25    1
     6    24    10    1
     7    10    11   ar
     8    11    12    1
     9    11    13   ar
    10    13    14   ar
    11    14     1    1
    12     1     2   ar
    13     2     3   ar
    14     3    28    1
    15    28    29    1
    16    29    30   ar
    17    30    31   ar
    18    31    32    1
    19    31    33   ar
    20    33    34   ar
    21    34    35    1
    22    34    36   ar
    23    36    37    1
    24     3     4   ar
    25     4     5   ar
    26     5     6   ar
    27     6     7   ar
    28     7     8   ar
    29     8     9   ar
    30    14    15   ar
    31    15    16   ar
    32    16    17    1
    33    16    10   ar
    34     9     1   ar
    35    36    29   ar
    36     9     4   ar
    37    12    18    1
    38    12    19    1
    39    17    20    1
    40    17    21    1
@<TRIPOS>MOLECULE
*****
 37 40 0 0 0
SMALL
GASTEIGER

@<TRIPOS>ATOM
      1 N         141.2203  143.8576  162.0088 N.ar    1  UNL1       -0.1967
      2 N         142.5266  143.4740  162.6383 N.ar    1  UNL1       -0.1666
      3 C         142.3077  143.3418  164.1163 C.ar    1  UNL1        0.0849
      4 C         140.8661  143.6437  164.4003 C.ar    1  UNL1        0.0334
      5 C         140.0786  143.6694  165.6766 C.ar    1  UNL1        0.0027
      6 C         138.6189  144.0140  165.6504 C.ar    1  UNL1        0.0001
      7 C         137.9469  144.3329  164.3478 C.ar    1  UNL1        0.0015
      8 C         138.7344  144.3071  163.0715 C.ar    1  UNL1        0.0193
      9 C         140.1940  143.9625  163.0977 C.ar    1  UNL1        0.0870
     10 C         140.5055  144.5692  157.6232 C.ar    1  UNL1        0.1194
     11 C         139.6457  143.5969  158.3752 C.ar    1  UNL1        0.1452
     12 N         138.5477  142.8618  157.6653 N.pl3   1  UNL1       -0.3415
     13 N         139.8840  143.3598  159.8370 N.ar    1  UNL1       -0.1940
     14 C         140.9820  144.0948  160.5469 C.ar    1  UNL1        0.2554
     15 N         141.8418  145.0672  159.7949 N.ar    1  UNL1       -0.1940
     16 C         141.6035  145.3043  158.3331 C.ar    1  UNL1        0.1452
     17 N         142.4633  146.2766  157.5812 N.pl3   1  UNL1       -0.3415
     18 H         138.3913  143.0174  156.7059 H       1  UNL1        0.1438
     19 H         137.9834  142.2236  158.1589 H       1  UNL1        0.1438
     20 H         143.1839  146.7591  158.0471 H       1  UNL1        0.1438
     21 H         142.3069  146.4323  156.6217 H       1  UNL1        0.1438
     22 C         140.9877  143.9772  155.1399 C.2     1  UNL1        0.4090
     23 O         141.9464  142.9110  155.5803 O.2     1  UNL1       -0.2258
     24 N         140.2672  144.8064  156.1614 N.am    1  UNL1       -0.2181
     25 C         139.3084  145.8726  155.7210 C.3     1  UNL1        0.1237
     26 C         141.5732  145.2263  152.9383 C.3     1  UNL1        0.2574
     27 O         140.7494  144.2143  153.6780 O.3     1  UNL1       -0.4302
     28 C         143.3478  142.9725  165.1321 C.3     1  UNL1        0.0763
     29 C         143.1297  141.7943  166.0347 C.ar    1  UNL1        0.0158
     30 C         142.8745  142.0072  167.4974 C.ar    1  UNL1        0.0281
     31 C         142.6563  140.8292  168.4000 C.ar    1  UNL1        0.1422
     32 F         142.4011  141.0421  169.8627 F       1  UNL1       -0.2041
     33 C         142.6934  139.4382  167.8397 C.ar    1  UNL1        0.0616
     34 C         142.9486  139.2253  166.3770 C.ar    1  UNL1        0.1693
     35 F         142.9857  137.8344  165.8168 F       1  UNL1       -0.2017
     36 C         143.1667  140.4033  165.4745 C.ar    1  UNL1        0.1639
     37 F         143.4219  140.1904  164.0118 F       1  UNL1       -0.2021
@<TRIPOS>BOND
     1    26    27    1
     2    27    22    1
     3    22    23    2
     4    22    24   am
     5    24    25    1
     6    24    10    1
     7    10    11   ar
     8    11    12    1
     9    11    13   ar
    10    13    14   ar
    11    14     1    1
    12     1     2   ar
    13     2     3   ar
    14     3    28    1
    15    28    29    1
    16    29    30   ar
    17    30    31   ar
    18    31    32    1
    19    31    33   ar
    20    33    34   ar
    21    34    35    1
    22    34    36   ar
    23    36    37    1
    24     3     4   ar
    25     4     5   ar
    26     5     6   ar
    27     6     7   ar
    28     7     8   ar
    29     8     9   ar
    30    14    15   ar
    31    15    16   ar
    32    16    17    1
    33    16    10   ar
    34     9     1   ar
    35    36    29   ar
    36     9     4   ar
    37    12    18    1
    38    12    19    1
    39    17    20    1
    40    17    21    1
@<TRIPOS>MOLECULE
*****
 37 40 0 0 0
SMALL
GASTEIGER

@<TRIPOS>ATOM
      1 N         138.7326  139.8887  161.2985 N.ar    1  UNL1       -0.1967
      2 N         138.9372  138.7521  162.2557 N.ar    1  UNL1       -0.1666
      3 C         138.7403  139.2769  163.6471 C.ar    1  UNL1        0.0849
      4 C         138.4139  140.7378  163.5497 C.ar    1  UNL1        0.0334
      5 C         138.1205  141.7725  164.5952 C.ar    1  UNL1        0.0027
      6 C         137.8223  143.1853  164.1891 C.ar    1  UNL1        0.0001
      7 C         137.8175  143.5634  162.7376 C.ar    1  UNL1        0.0015
      8 C         138.1110  142.5287  161.6921 C.ar    1  UNL1        0.0193
      9 C         138.4092  141.1158  162.0981 C.ar    1  UNL1        0.0870
     10 C         139.0356  139.6575  156.8146 C.ar    1  UNL1        0.1194
     11 C         140.1681  139.1702  157.6690 C.ar    1  UNL1        0.1452
     12 N         141.4016  138.6058  157.0287 N.pl3   1  UNL1       -0.3415
     13 N         140.0671  139.2473  159.1636 N.ar    1  UNL1       -0.1940
     14 C         138.8336  139.8116  159.8038 C.ar    1  UNL1        0.2554
     15 N         137.7011  140.2989  158.9494 N.ar    1  UNL1       -0.1940
     16 C         137.8021  140.2219  157.4548 C.ar    1  UNL1        0.1452
     17 N         136.6696  140.7092  156.6005 N.pl3   1  UNL1       -0.3415
     18 H         141.4679  138.5552  156.0478 H       1  UNL1        0.1438
     19 H         142.1449  138.2860  157.5895 H       1  UNL1        0.1438
     20 H         135.8600  141.0796  157.0208 H       1  UNL1        0.1438
     21 H         136.7358  140.6586  155.6195 H       1  UNL1        0.1438
     22 C         138.6287  138.3692  154.5955 C.2     1  UNL1        0.4090
     23 O         138.0198  137.2351  155.3655 O.2     1  UNL1       -0.2258
     24 N         139.1366  139.5804  155.3200 N.am    1  UNL1       -0.2181
     25 C         139.7456  140.7145  154.5499 C.3     1  UNL1        0.1237
     26 C         139.6971  137.3398  152.4626 C.3     1  UNL1        0.2574
     27 O         138.7297  138.2920  153.1008 O.3     1  UNL1       -0.4302
     28 C         138.8504  138.4807  164.9135 C.3     1  UNL1        0.0763
     29 C         139.4651  139.0963  166.1355 C.ar    1  UNL1        0.0158
     30 C         140.9081  139.5055  166.1241 C.ar    1  UNL1        0.0281
     31 C         141.5229  140.1212  167.3460 C.ar    1  UNL1        0.1422
     32 F         142.9659  140.5304  167.3346 F       1  UNL1       -0.2041
     33 C         140.6945  140.3276  168.5794 C.ar    1  UNL1        0.0616
     34 C         139.2514  139.9184  168.5908 C.ar    1  UNL1        0.1693
     35 F         138.4230  140.1248  169.8241 F       1  UNL1       -0.2017
     36 C         138.6367  139.3028  167.3689 C.ar    1  UNL1        0.1639
     37 F         137.1936  138.8936  167.3803 F       1  UNL1       -0.2021
@<TRIPOS>BOND
     1    26    27    1
     2    27    22    1
     3    22    23    2
     4    22    24   am
     5    24    25    1
     6    24    10    1
     7    10    11   ar
     8    11    12    1
     9    11    13   ar
    10    13    14   ar
    11    14     1    1
    12     1     2   ar
    13     2     3   ar
    14     3    28    1
    15    28    29    1
    16    29    30   ar
    17    30    31   ar
    18    31    32    1
    19    31    33   ar
    20    33    34   ar
    21    34    35    1
    22    34    36   ar
    23    36    37    1
    24     3     4   ar
    25     4     5   ar
    26     5     6   ar
    27     6     7   ar
    28     7     8   ar
    29     8     9   ar
    30    14    15   ar
    31    15    16   ar
    32    16    17    1
    33    16    10   ar
    34     9     1   ar
    35    36    29   ar
    36     9     4   ar
    37    12    18    1
    38    12    19    1
    39    17    20    1
    40    17    21    1
@<TRIPOS>MOLECULE
*****
 37 40 0 0 0
SMALL
GASTEIGER

@<TRIPOS>ATOM
      1 N         140.7230  141.0265  163.4719 N.ar    1  UNL1       -0.1967
      2 N         140.5739  140.2632  164.7546 N.ar    1  UNL1       -0.1666
      3 C         139.9708  141.1835  165.7740 C.ar    1  UNL1        0.0849
      4 C         139.7471  142.5155  165.1214 C.ar    1  UNL1        0.0334
      5 C         139.1801  143.8041  165.6389 C.ar    1  UNL1        0.0027
      6 C         139.0781  144.9957  164.7336 C.ar    1  UNL1        0.0001
      7 C         139.5430  144.8986  163.3108 C.ar    1  UNL1        0.0015
      8 C         140.1100  143.6100  162.7933 C.ar    1  UNL1        0.0193
      9 C         140.2120  142.4184  163.6986 C.ar    1  UNL1        0.0870
     10 C         142.4078  139.4220  159.6200 C.ar    1  UNL1        0.1194
     11 C         141.0619  140.0841  159.6317 C.ar    1  UNL1        0.1452
     12 N         140.2776  140.2114  158.3595 N.pl3   1  UNL1       -0.3415
     13 N         140.5004  140.6189  160.9157 N.ar    1  UNL1       -0.1940
     14 C         141.2846  140.4916  162.1879 C.ar    1  UNL1        0.2554
     15 N         142.6306  139.8295  162.1762 N.ar    1  UNL1       -0.1940
     16 C         143.1921  139.2947  160.8922 C.ar    1  UNL1        0.1452
     17 N         144.5380  138.6326  160.8805 N.pl3   1  UNL1       -0.3415
     18 H         140.6462  139.8604  157.5168 H       1  UNL1        0.1438
     19 H         139.3942  140.6460  158.3672 H       1  UNL1        0.1438
     20 H         145.0528  138.5490  161.7156 H       1  UNL1        0.1438
     21 H         144.9066  138.2815  160.0378 H       1  UNL1        0.1438
     22 C         143.8388  139.7574  157.4777 C.2     1  UNL1        0.4090
     23 O         144.1468  141.1624  157.9034 O.2     1  UNL1       -0.2258
     24 N         142.9694  138.8872  158.3360 N.am    1  UNL1       -0.2181
     25 C         142.6614  137.4822  157.9103 C.3     1  UNL1        0.1237
     26 C         145.4869  139.9718  155.4806 C.3     1  UNL1        0.2574
     27 O         144.4005  139.2226  156.1937 O.3     1  UNL1       -0.4302
     28 C         139.6479  140.8333  167.1964 C.3     1  UNL1        0.0763
     29 C         140.7376  140.8013  168.2268 C.ar    1  UNL1        0.0158
     30 C         141.3299  139.4903  168.6516 C.ar    1  UNL1        0.0281
     31 C         142.4195  139.4582  169.6820 C.ar    1  UNL1        0.1422
     32 F         143.0117  138.1472  170.1068 F       1  UNL1       -0.2041
     33 C         142.9169  140.7373  170.2875 C.ar    1  UNL1        0.0616
     34 C         142.3246  142.0483  169.8627 C.ar    1  UNL1        0.1693
     35 F         142.8220  143.3273  170.4683 F       1  UNL1       -0.2017
     36 C         141.2350  142.0804  168.8324 C.ar    1  UNL1        0.1639
     37 F         140.6427  143.3914  168.4076 F       1  UNL1       -0.2021
@<TRIPOS>BOND
     1    26    27    1
     2    27    22    1
     3    22    23    2
     4    22    24   am
     5    24    25    1
     6    24    10    1
     7    10    11   ar
     8    11    12    1
     9    11    13   ar
    10    13    14   ar
    11    14     1    1
    12     1     2   ar
    13     2     3   ar
    14     3    28    1
    15    28    29    1
    16    29    30   ar
    17    30    31   ar
    18    31    32    1
    19    31    33   ar
    20    33    34   ar
    21    34    35    1
    22    34    36   ar
    23    36    37    1
    24     3     4   ar
    25     4     5   ar
    26     5     6   ar
    27     6     7   ar
    28     7     8   ar
    29     8     9   ar
    30    14    15   ar
    31    15    16   ar
    32    16    17    1
    33    16    10   ar
    34     9     1   ar
    35    36    29   ar
    36     9     4   ar
    37    12    18    1
    38    12    19    1
    39    17    20    1
    40    17    21    1
