@<TRIPOS>MOLECULE
*****
 28 31 0 0 0
SMALL
GASTEIGER

@<TRIPOS>ATOM
      1 N         141.6185  142.3434  168.2827 N.3     1  UNL1       -0.2713
      2 C         141.3235  143.1446  169.5160 C.3     1  UNL1        0.0614
      3 C         142.5571  143.1532  170.3694 C.3     1  UNL1        0.0175
      4 C         143.6145  142.3573  169.6634 C.3     1  UNL1        0.0175
      5 C         143.0345  141.8568  168.3738 C.3     1  UNL1        0.0614
      6 C         142.2015  141.4985  167.1668 C.3     1  UNL1        0.0595
      7 C         140.8090  142.0540  167.2148 C.3     1  UNL1        0.1686
      8 C         140.3700  142.8770  168.3895 C.3     1  UNL1        0.0595
      9 C         140.6650  142.0758  167.1561 C.3     1  UNL1        0.0991
     10 C         142.5593  144.6091  162.8420 C.3     1  UNL1        0.0310
     11 C         141.6239  144.1890  163.9367 C.ar    1  UNL1       -0.0221
     12 C         140.3631  144.9744  163.7273 C.ar    1  UNL1       -0.0043
     13 C         139.2031  144.7935  164.6609 C.ar    1  UNL1       -0.0006
     14 C         139.3037  143.8274  165.8038 C.ar    1  UNL1       -0.0029
     15 C         140.5644  143.0420  166.0132 C.ar    1  UNL1       -0.0065
     16 C         141.7244  143.2228  165.0797 C.ar    1  UNL1       -0.0072
     17 O         139.8555  141.7863  166.0882 O.3     1  UNL1       -0.4791
     18 C         139.4175  140.3822  165.7938 C.ar    1  UNL1        0.1385
     19 C         138.6088  139.6217  166.8026 C.ar    1  UNL1        0.0369
     20 C         138.1709  138.2177  166.5082 C.ar    1  UNL1        0.0033
     21 C         138.5417  137.5740  165.2051 C.ar    1  UNL1        0.0047
     22 C         139.3504  138.3344  164.1963 C.ar    1  UNL1        0.0561
     23 C         139.7884  139.7386  164.4907 C.ar    1  UNL1        0.0414
     24 C         139.7213  137.6908  162.8932 C.2     1  UNL1        0.2428
     25 N         138.7603  137.7203  161.7418 N.am    1  UNL1       -0.3253
     26 O         141.0531  137.0175  162.7414 O.2     1  UNL1       -0.2704
     27 H         137.8862  138.1622  161.8414 H       1  UNL1        0.1453
     28 H         139.0037  137.2978  160.8865 H       1  UNL1        0.1453
@<TRIPOS>BOND
     1    10    11    1
     2    11    12   ar
     3    12    13   ar
     4    13    14   ar
     5    14    15   ar
     6    15     9    1
     7     9     1    1
     8     1     2    1
     9     2     3    1
    10     3     4    1
    11     5     4    1
    12     5     6    1
    13     6     7    1
    14     7    17    1
    15    17    18    1
    16    18    19   ar
    17    19    20   ar
    18    20    21   ar
    19    21    22   ar
    20    22    24    1
    21    24    25   am
    22    24    26    2
    23    22    23   ar
    24     7     8    1
    25    15    16   ar
    26    16    11   ar
    27     5     1    1
    28    23    18   ar
    29     8     2    1
    30    25    27    1
    31    25    28    1
@<TRIPOS>MOLECULE
*****
 28 31 0 0 0
SMALL
GASTEIGER

@<TRIPOS>ATOM
      1 N         141.9968  143.3368  164.8823 N.3     1  UNL1       -0.2713
      2 C         143.3356  143.6619  164.2891 C.3     1  UNL1        0.0614
      3 C         143.1783  144.8813  163.4300 C.3     1  UNL1        0.0175
      4 C         141.7422  145.3100  163.4923 C.3     1  UNL1        0.0175
      5 C         141.0120  144.3554  164.3898 C.3     1  UNL1        0.0614
      6 C         140.5471  143.2613  165.3204 C.3     1  UNL1        0.0595
      7 C         141.6403  142.3186  165.7283 C.3     1  UNL1        0.1686
      8 C         143.0345  142.5189  165.2127 C.3     1  UNL1        0.0595
      9 C         141.6957  142.1938  165.8059 C.3     1  UNL1        0.0991
     10 C         139.8219  143.3249  170.6872 C.3     1  UNL1        0.0310
     11 C         140.7743  142.9464  169.5920 C.ar    1  UNL1       -0.0221
     12 C         142.1020  142.7291  170.2554 C.ar    1  UNL1       -0.0043
     13 C         143.2942  142.3335  169.4356 C.ar    1  UNL1       -0.0006
     14 C         143.1588  142.1550  167.9525 C.ar    1  UNL1       -0.0029
     15 C         141.8311  142.3723  167.2891 C.ar    1  UNL1       -0.0065
     16 C         140.6389  142.7679  168.1088 C.ar    1  UNL1       -0.0072
     17 O         141.3391  141.1756  166.6519 O.3     1  UNL1       -0.4791
     18 C         140.3679  140.1109  166.2357 C.ar    1  UNL1        0.1385
     19 C         139.2141  139.7583  167.1269 C.ar    1  UNL1        0.0369
     20 C         138.2430  138.6936  166.7107 C.ar    1  UNL1        0.0033
     21 C         138.4256  137.9816  165.4032 C.ar    1  UNL1        0.0047
     22 C         139.5794  138.3342  164.5119 C.ar    1  UNL1        0.0561
     23 C         140.5506  139.3989  164.9282 C.ar    1  UNL1        0.0414
     24 C         139.7620  137.6221  163.2044 C.2     1  UNL1        0.2428
     25 N         138.6563  137.6196  162.1909 N.am    1  UNL1       -0.3253
     26 O         141.0505  136.9124  162.9104 O.2     1  UNL1       -0.2704
     27 H         137.8106  138.0854  162.3838 H       1  UNL1        0.1453
     28 H         138.7762  137.1523  161.3327 H       1  UNL1        0.1453
@<TRIPOS>BOND
     1    10    11    1
     2    11    12   ar
     3    12    13   ar
     4    13    14   ar
     5    14    15   ar
     6    15     9    1
     7     9     1    1
     8     1     2    1
     9     2     3    1
    10     3     4    1
    11     5     4    1
    12     5     6    1
    13     6     7    1
    14     7    17    1
    15    17    18    1
    16    18    19   ar
    17    19    20   ar
    18    20    21   ar
    19    21    22   ar
    20    22    24    1
    21    24    25   am
    22    24    26    2
    23    22    23   ar
    24     7     8    1
    25    15    16   ar
    26    16    11   ar
    27     5     1    1
    28    23    18   ar
    29     8     2    1
    30    25    27    1
    31    25    28    1
@<TRIPOS>MOLECULE
*****
 28 31 0 0 0
SMALL
GASTEIGER

@<TRIPOS>ATOM
      1 N         143.2843  141.6883  164.4774 N.3     1  UNL1       -0.2713
      2 C         144.4755  142.5963  164.5598 C.3     1  UNL1        0.0614
      3 C         145.6363  141.8978  163.9158 C.3     1  UNL1        0.0175
      4 C         145.1625  140.5581  163.4355 C.3     1  UNL1        0.0175
      5 C         143.7090  140.4286  163.7825 C.3     1  UNL1        0.0614
      6 C         142.2806  140.5750  164.2488 C.3     1  UNL1        0.0595
      7 C         142.0036  141.8848  164.9253 C.3     1  UNL1        0.1686
      8 C         143.1011  142.8955  165.0809 C.3     1  UNL1        0.0595
      9 C         141.9099  141.9875  164.9985 C.3     1  UNL1        0.0991
     10 C         138.2237  142.4910  161.1545 C.3     1  UNL1        0.0310
     11 C         139.1661  142.8513  162.2644 C.ar    1  UNL1       -0.0221
     12 C         139.0082  144.3277  162.4780 C.ar    1  UNL1       -0.0043
     13 C         139.8175  145.0239  163.5317 C.ar    1  UNL1       -0.0006
     14 C         140.7847  144.2438  164.3718 C.ar    1  UNL1       -0.0029
     15 C         140.9427  142.7675  164.1583 C.ar    1  UNL1       -0.0065
     16 C         140.1334  142.0713  163.1047 C.ar    1  UNL1       -0.0072
     17 O         140.6291  142.1840  165.4464 O.3     1  UNL1       -0.4791
     18 C         140.2183  141.6937  166.8032 C.ar    1  UNL1        0.1385
     19 C         139.6085  140.3317  166.9555 C.ar    1  UNL1        0.0369
     20 C         139.1977  139.8414  168.3122 C.ar    1  UNL1        0.0033
     21 C         139.3965  140.7131  169.5166 C.ar    1  UNL1        0.0047
     22 C         140.0063  142.0751  169.3643 C.ar    1  UNL1        0.0561
     23 C         140.4171  142.5654  168.0075 C.ar    1  UNL1        0.0414
     24 C         140.2051  142.9468  170.5687 C.2     1  UNL1        0.2428
     25 N         140.1683  144.4397  170.4283 N.am    1  UNL1       -0.3253
     26 O         140.4408  142.3254  171.9135 O.2     1  UNL1       -0.2704
     27 H         140.0136  144.8475  169.5457 H       1  UNL1        0.1453
     28 H         140.2988  145.0118  171.2189 H       1  UNL1        0.1453
@<TRIPOS>BOND
     1    10    11    1
     2    11    12   ar
     3    12    13   ar
     4    13    14   ar
     5    14    15   ar
     6    15     9    1
     7     9     1    1
     8     1     2    1
     9     2     3    1
    10     3     4    1
    11     5     4    1
    12     5     6    1
    13     6     7    1
    14     7    17    1
    15    17    18    1
    16    18    19   ar
    17    19    20   ar
    18    20    21   ar
    19    21    22   ar
    20    22    24    1
    21    24    25   am
    22    24    26    2
    23    22    23   ar
    24     7     8    1
    25    15    16   ar
    26    16    11   ar
    27     5     1    1
    28    23    18   ar
    29     8     2    1
    30    25    27    1
    31    25    28    1
@<TRIPOS>MOLECULE
*****
 28 31 0 0 0
SMALL
GASTEIGER

@<TRIPOS>ATOM
      1 N         139.8653  139.5888  164.2530 N.3     1  UNL1       -0.2713
      2 C         140.8564  139.0786  163.2493 C.3     1  UNL1        0.0614
      3 C         140.2955  137.8291  162.6377 C.3     1  UNL1        0.0175
      4 C         138.9577  137.5670  163.2635 C.3     1  UNL1        0.0175
      5 C         138.6918  138.6546  164.2617 C.3     1  UNL1        0.0614
      6 C         138.6944  139.8533  165.1794 C.3     1  UNL1        0.0595
      7 C         139.9305  140.6947  165.0606 C.3     1  UNL1        0.1686
      8 C         141.0115  140.3073  164.0956 C.3     1  UNL1        0.0595
      9 C         140.0204  140.8175  165.0993 C.3     1  UNL1        0.0991
     10 C         140.9181  145.4808  162.6364 C.3     1  UNL1        0.0310
     11 C         140.1976  144.3747  163.3487 C.ar    1  UNL1       -0.0221
     12 C         138.7754  144.8308  163.4889 C.ar    1  UNL1       -0.0043
     13 C         137.7683  143.9490  164.1658 C.ar    1  UNL1       -0.0006
     14 C         138.1833  142.6113  164.7026 C.ar    1  UNL1       -0.0029
     15 C         139.6054  142.1553  164.5624 C.ar    1  UNL1       -0.0065
     16 C         140.6125  143.0369  163.8855 C.ar    1  UNL1       -0.0072
     17 O         140.0856  141.9234  165.9070 O.3     1  UNL1       -0.4791
     18 C         140.9289  141.8787  167.1467 C.ar    1  UNL1        0.1385
     19 C         142.3874  142.2216  167.0744 C.ar    1  UNL1        0.0369
     20 C         143.2307  142.1769  168.3140 C.ar    1  UNL1        0.0033
     21 C         142.6155  141.7891  169.6260 C.ar    1  UNL1        0.0047
     22 C         141.1571  141.4461  169.6983 C.ar    1  UNL1        0.0561
     23 C         140.3138  141.4909  168.4586 C.ar    1  UNL1        0.0414
     24 C         140.5420  141.0584  171.0102 C.2     1  UNL1        0.2428
     25 N         139.9705  139.6837  171.1935 N.am    1  UNL1       -0.3253
     26 O         140.4983  142.0454  172.1390 O.2     1  UNL1       -0.2704
     27 H         139.9991  139.0359  170.4527 H       1  UNL1        0.1453
     28 H         139.5667  139.4292  172.0546 H       1  UNL1        0.1453
@<TRIPOS>BOND
     1    10    11    1
     2    11    12   ar
     3    12    13   ar
     4    13    14   ar
     5    14    15   ar
     6    15     9    1
     7     9     1    1
     8     1     2    1
     9     2     3    1
    10     3     4    1
    11     5     4    1
    12     5     6    1
    13     6     7    1
    14     7    17    1
    15    17    18    1
    16    18    19   ar
    17    19    20   ar
    18    20    21   ar
    19    21    22   ar
    20    22    24    1
    21    24    25   am
    22    24    26    2
    23    22    23   ar
    24     7     8    1
    25    15    16   ar
    26    16    11   ar
    27     5     1    1
    28    23    18   ar
    29     8     2    1
    30    25    27    1
    31    25    28    1
@<TRIPOS>MOLECULE
*****
 28 31 0 0 0
SMALL
GASTEIGER

@<TRIPOS>ATOM
      1 N         141.4664  140.7590  168.6763 N.3     1  UNL1       -0.2713
      2 C         142.7816  140.1484  169.0605 C.3     1  UNL1        0.0614
      3 C         142.8807  140.1648  170.5572 C.3     1  UNL1        0.0175
      4 C         141.6268  140.7855  171.0979 C.3     1  UNL1        0.0175
      5 C         140.7527  141.1528  169.9355 C.3     1  UNL1        0.0614
      6 C         140.0982  141.4080  168.5992 C.3     1  UNL1        0.0595
      7 C         140.9283  140.9626  167.4319 C.3     1  UNL1        0.1686
      8 C         142.2700  140.3328  167.6626 C.3     1  UNL1        0.0595
      9 C         140.9549  140.9434  167.2783 C.3     1  UNL1        0.0991
     10 C         140.8782  136.8764  163.8039 C.3     1  UNL1        0.0310
     11 C         140.4181  137.8585  164.8401 C.ar    1  UNL1       -0.0221
     12 C         138.9877  137.5127  165.1313 C.ar    1  UNL1       -0.0043
     13 C         138.2132  138.3104  166.1381 C.ar    1  UNL1       -0.0006
     14 C         138.8689  139.4540  166.8538 C.ar    1  UNL1       -0.0029
     15 C         140.2992  139.7998  166.5626 C.ar    1  UNL1       -0.0065
     16 C         141.0737  139.0021  165.5559 C.ar    1  UNL1       -0.0072
     17 O         140.4167  141.1471  166.0339 O.3     1  UNL1       -0.4791
     18 C         140.6864  142.4268  165.2994 C.ar    1  UNL1        0.1385
     19 C         139.6206  143.4784  165.2086 C.ar    1  UNL1        0.0369
     20 C         139.8902  144.7580  164.4741 C.ar    1  UNL1        0.0033
     21 C         141.2256  144.9862  163.8303 C.ar    1  UNL1        0.0047
     22 C         142.2914  143.9347  163.9210 C.ar    1  UNL1        0.0561
     23 C         142.0218  142.6549  164.6556 C.ar    1  UNL1        0.0414
     24 C         143.6269  144.1628  163.2772 C.2     1  UNL1        0.2428
     25 N         143.9852  145.5226  162.7549 N.am    1  UNL1       -0.3253
     26 O         144.6041  143.0313  163.1557 O.2     1  UNL1       -0.2704
     27 H         143.3439  146.2652  162.8347 H       1  UNL1        0.1453
     28 H         144.8617  145.6723  162.3324 H       1  UNL1        0.1453
@<TRIPOS>BOND
     1    10    11    1
     2    11    12   ar
     3    12    13   ar
     4    13    14   ar
     5    14    15   ar
     6    15     9    1
     7     9     1    1
     8     1     2    1
     9     2     3    1
    10     3     4    1
    11     5     4    1
    12     5     6    1
    13     6     7    1
    14     7    17    1
    15    17    18    1
    16    18    19   ar
    17    19    20   ar
    18    20    21   ar
    19    21    22   ar
    20    22    24    1
    21    24    25   am
    22    24    26    2
    23    22    23   ar
    24     7     8    1
    25    15    16   ar
    26    16    11   ar
    27     5     1    1
    28    23    18   ar
    29     8     2    1
    30    25    27    1
    31    25    28    1
@<TRIPOS>MOLECULE
*****
 28 31 0 0 0
SMALL
GASTEIGER

@<TRIPOS>ATOM
      1 N         139.4579  142.7517  164.0612 N.3     1  UNL1       -0.2713
      2 C         138.0640  143.3051  164.0864 C.3     1  UNL1        0.0614
      3 C         137.8979  144.1975  162.8922 C.3     1  UNL1        0.0175
      4 C         139.1892  144.1956  162.1290 C.3     1  UNL1        0.0175
      5 C         140.1533  143.3020  162.8514 C.3     1  UNL1        0.0614
      6 C         140.8947  142.3629  163.7720 C.3     1  UNL1        0.0595
      7 C         140.0735  141.8951  164.9369 C.3     1  UNL1        0.1686
      8 C         138.6581  142.3662  165.0941 C.3     1  UNL1        0.0595
      9 C         140.0520  141.8127  165.0689 C.3     1  UNL1        0.0991
     10 C         137.3826  137.5533  166.8990 C.3     1  UNL1        0.0310
     11 C         138.3035  138.3916  166.0628 C.ar    1  UNL1       -0.0221
     12 C         138.8984  137.4632  165.0457 C.ar    1  UNL1       -0.0043
     13 C         139.8778  137.9848  164.0364 C.ar    1  UNL1       -0.0006
     14 C         140.2623  139.4346  164.0441 C.ar    1  UNL1       -0.0029
     15 C         139.6675  140.3629  165.0612 C.ar    1  UNL1       -0.0065
     16 C         138.6881  139.8414  166.0705 C.ar    1  UNL1       -0.0072
     17 O         140.6677  140.9561  165.9446 O.3     1  UNL1       -0.4791
     18 C         141.3194  141.4984  167.1820 C.ar    1  UNL1        0.1385
     19 C         142.7592  141.9174  167.1493 C.ar    1  UNL1        0.0369
     20 C         143.4108  142.4597  168.3867 C.ar    1  UNL1        0.0033
     21 C         142.6226  142.5829  169.6569 C.ar    1  UNL1        0.0047
     22 C         141.1827  142.1638  169.6897 C.ar    1  UNL1        0.0561
     23 C         140.5311  141.6216  168.4522 C.ar    1  UNL1        0.0414
     24 C         140.3945  142.2870  170.9599 C.2     1  UNL1        0.2428
     25 N         139.3545  143.3594  171.0962 N.am    1  UNL1       -0.3253
     26 O         140.6462  141.3379  172.0939 O.2     1  UNL1       -0.2704
     27 H         139.1892  143.9823  170.3520 H       1  UNL1        0.1453
     28 H         138.8371  143.4402  171.9299 H       1  UNL1        0.1453
@<TRIPOS>BOND
     1    10    11    1
     2    11    12   ar
     3    12    13   ar
     4    13    14   ar
     5    14    15   ar
     6    15     9    1
     7     9     1    1
     8     1     2    1
     9     2     3    1
    10     3     4    1
    11     5     4    1
    12     5     6    1
    13     6     7    1
    14     7    17    1
    15    17    18    1
    16    18    19   ar
    17    19    20   ar
    18    20    21   ar
    19    21    22   ar
    20    22    24    1
    21    24    25   am
    22    24    26    2
    23    22    23   ar
    24     7     8    1
    25    15    16   ar
    26    16    11   ar
    27     5     1    1
    28    23    18   ar
    29     8     2    1
    30    25    27    1
    31    25    28    1
@<TRIPOS>MOLECULE
*****
 28 31 0 0 0
SMALL
GASTEIGER

@<TRIPOS>ATOM
      1 N         140.7644  139.2595  164.5837 N.3     1  UNL1       -0.2713
      2 C         139.5243  139.9187  164.0567 C.3     1  UNL1        0.0614
      3 C         138.7477  138.8945  163.2835 C.3     1  UNL1        0.0175
      4 C         139.5078  137.6023  163.3327 C.3     1  UNL1        0.0175
      5 C         140.7542  137.8279  164.1362 C.3     1  UNL1        0.0614
      6 C         141.9043  138.3376  164.9708 C.3     1  UNL1        0.0595
      7 C         141.7778  139.7853  165.3426 C.3     1  UNL1        0.1686
      8 C         140.5878  140.5758  164.8856 C.3     1  UNL1        0.0595
      9 C         141.8279  139.9167  165.4126 C.3     1  UNL1        0.0991
     10 C         144.1143  144.1459  163.0666 C.3     1  UNL1        0.0310
     11 C         143.9354  142.7660  163.6267 C.ar    1  UNL1       -0.0221
     12 C         145.2401  142.0588  163.4082 C.ar    1  UNL1       -0.0043
     13 C         145.4073  140.6375  163.8579 C.ar    1  UNL1       -0.0006
     14 C         144.2700  139.9236  164.5260 C.ar    1  UNL1       -0.0029
     15 C         142.9653  140.6307  164.7445 C.ar    1  UNL1       -0.0065
     16 C         142.7980  142.0519  164.2949 C.ar    1  UNL1       -0.0072
     17 O         142.8414  140.4424  166.1716 O.3     1  UNL1       -0.4791
     18 C         142.6676  140.5624  167.6567 C.ar    1  UNL1        0.1385
     19 C         142.6112  139.3282  168.5073 C.ar    1  UNL1        0.0369
     20 C         142.4374  139.4482  169.9923 C.ar    1  UNL1        0.0033
     21 C         142.3199  140.8023  170.6267 C.ar    1  UNL1        0.0047
     22 C         142.3763  142.0365  169.7761 C.ar    1  UNL1        0.0561
     23 C         142.5501  141.9165  168.2910 C.ar    1  UNL1        0.0414
     24 C         142.2588  143.3906  170.4105 C.2     1  UNL1        0.2428
     25 N         143.3918  143.9368  171.2279 N.am    1  UNL1       -0.3253
     26 O         141.0083  144.1987  170.2275 O.2     1  UNL1       -0.2704
     27 H         144.2125  143.4064  171.3480 H       1  UNL1        0.1453
     28 H         143.3146  144.8255  171.6443 H       1  UNL1        0.1453
@<TRIPOS>BOND
     1    10    11    1
     2    11    12   ar
     3    12    13   ar
     4    13    14   ar
     5    14    15   ar
     6    15     9    1
     7     9     1    1
     8     1     2    1
     9     2     3    1
    10     3     4    1
    11     5     4    1
    12     5     6    1
    13     6     7    1
    14     7    17    1
    15    17    18    1
    16    18    19   ar
    17    19    20   ar
    18    20    21   ar
    19    21    22   ar
    20    22    24    1
    21    24    25   am
    22    24    26    2
    23    22    23   ar
    24     7     8    1
    25    15    16   ar
    26    16    11   ar
    27     5     1    1
    28    23    18   ar
    29     8     2    1
    30    25    27    1
    31    25    28    1
@<TRIPOS>MOLECULE
*****
 28 31 0 0 0
SMALL
GASTEIGER

@<TRIPOS>ATOM
      1 N         140.8280  138.9847  164.6159 N.3     1  UNL1       -0.2713
      2 C         141.6586  137.8201  164.1643 C.3     1  UNL1        0.0614
      3 C         140.7873  136.9227  163.3364 C.3     1  UNL1        0.0175
      4 C         139.4182  137.5327  163.2763 C.3     1  UNL1        0.0175
      5 C         139.4434  138.8070  164.0671 C.3     1  UNL1        0.0614
      6 C         139.7586  140.0183  164.9113 C.3     1  UNL1        0.0595
      7 C         141.1800  140.0609  165.3888 C.3     1  UNL1        0.1686
      8 C         142.1299  138.9618  165.0153 C.3     1  UNL1        0.0595
      9 C         141.2994  140.1264  165.4670 C.3     1  UNL1        0.0991
     10 C         138.7953  140.4824  170.1809 C.3     1  UNL1        0.0310
     11 C         139.8783  140.2455  169.1705 C.ar    1  UNL1       -0.0221
     12 C         141.0883  139.8266  169.9520 C.ar    1  UNL1       -0.0043
     13 C         142.3685  139.5076  169.2384 C.ar    1  UNL1       -0.0006
     14 C         142.4389  139.6076  167.7435 C.ar    1  UNL1       -0.0029
     15 C         141.2290  140.0264  166.9620 C.ar    1  UNL1       -0.0065
     16 C         139.9488  140.3454  167.6755 C.ar    1  UNL1       -0.0072
     17 O         141.6513  141.2027  166.2399 O.3     1  UNL1       -0.4791
     18 C         142.4145  142.3353  165.6196 C.ar    1  UNL1        0.1385
     19 C         143.7773  142.6924  166.1347 C.ar    1  UNL1        0.0369
     20 C         144.5404  143.8250  165.5145 C.ar    1  UNL1        0.0033
     21 C         143.9409  144.6004  164.3790 C.ar    1  UNL1        0.0047
     22 C         142.5781  144.2433  163.8639 C.ar    1  UNL1        0.0561
     23 C         141.8149  143.1107  164.4842 C.ar    1  UNL1        0.0414
     24 C         141.9786  145.0188  162.7285 C.2     1  UNL1        0.2428
     25 N         140.9747  146.0985  163.0052 N.am    1  UNL1       -0.3253
     26 O         142.3830  144.7146  161.3164 O.2     1  UNL1       -0.2704
     27 H         140.7093  146.2981  163.9320 H       1  UNL1        0.1453
     28 H         140.5812  146.6075  162.2600 H       1  UNL1        0.1453
@<TRIPOS>BOND
     1    10    11    1
     2    11    12   ar
     3    12    13   ar
     4    13    14   ar
     5    14    15   ar
     6    15     9    1
     7     9     1    1
     8     1     2    1
     9     2     3    1
    10     3     4    1
    11     5     4    1
    12     5     6    1
    13     6     7    1
    14     7    17    1
    15    17    18    1
    16    18    19   ar
    17    19    20   ar
    18    20    21   ar
    19    21    22   ar
    20    22    24    1
    21    24    25   am
    22    24    26    2
    23    22    23   ar
    24     7     8    1
    25    15    16   ar
    26    16    11   ar
    27     5     1    1
    28    23    18   ar
    29     8     2    1
    30    25    27    1
    31    25    28    1
@<TRIPOS>MOLECULE
*****
 28 31 0 0 0
SMALL
GASTEIGER

@<TRIPOS>ATOM
      1 N         143.4940  141.2304  165.1487 N.3     1  UNL1       -0.2713
      2 C         143.8707  139.8178  164.8132 C.3     1  UNL1        0.0614
      3 C         145.1684  139.8502  164.0616 C.3     1  UNL1        0.0175
      4 C         145.5937  141.2828  163.9326 C.3     1  UNL1        0.0175
      5 C         144.5588  142.1358  164.6045 C.3     1  UNL1        0.0614
      6 C         143.3810  142.7306  165.3381 C.3     1  UNL1        0.0595
      7 C         142.3996  141.7055  165.8240 C.3     1  UNL1        0.1686
      8 C         142.6444  140.2491  165.5615 C.3     1  UNL1        0.0595
      9 C         142.2676  141.6617  165.8971 C.3     1  UNL1        0.0991
     10 C         140.3467  139.9841  170.5996 C.3     1  UNL1        0.0310
     11 C         141.2009  140.7020  169.5972 C.ar    1  UNL1       -0.0221
     12 C         142.1988  141.4898  170.3932 C.ar    1  UNL1       -0.0043
     13 C         143.2196  142.3349  169.6905 C.ar    1  UNL1       -0.0006
     14 C         143.2425  142.3922  168.1919 C.ar    1  UNL1       -0.0029
     15 C         142.2447  141.6044  167.3958 C.ar    1  UNL1       -0.0065
     16 C         141.2239  140.7594  168.0985 C.ar    1  UNL1       -0.0072
     17 O         141.1732  142.1370  166.5724 O.3     1  UNL1       -0.4791
     18 C         140.0637  142.8429  165.8507 C.ar    1  UNL1        0.1385
     19 C         139.6150  144.1990  166.3083 C.ar    1  UNL1        0.0369
     20 C         138.5056  144.9049  165.5867 C.ar    1  UNL1        0.0033
     21 C         137.8449  144.2546  164.4074 C.ar    1  UNL1        0.0047
     22 C         138.2937  142.8985  163.9498 C.ar    1  UNL1        0.0561
     23 C         139.4031  142.1926  164.6715 C.ar    1  UNL1        0.0414
     24 C         137.6330  142.2482  162.7706 C.2     1  UNL1        0.2428
     25 N         136.9530  140.9207  162.9296 N.am    1  UNL1       -0.3253
     26 O         137.6523  142.9255  161.4323 O.2     1  UNL1       -0.2704
     27 H         136.9403  140.4761  163.8079 H       1  UNL1        0.1453
     28 H         136.5194  140.4939  162.1556 H       1  UNL1        0.1453
@<TRIPOS>BOND
     1    10    11    1
     2    11    12   ar
     3    12    13   ar
     4    13    14   ar
     5    14    15   ar
     6    15     9    1
     7     9     1    1
     8     1     2    1
     9     2     3    1
    10     3     4    1
    11     5     4    1
    12     5     6    1
    13     6     7    1
    14     7    17    1
    15    17    18    1
    16    18    19   ar
    17    19    20   ar
    18    20    21   ar
    19    21    22   ar
    20    22    24    1
    21    24    25   am
    22    24    26    2
    23    22    23   ar
    24     7     8    1
    25    15    16   ar
    26    16    11   ar
    27     5     1    1
    28    23    18   ar
    29     8     2    1
    30    25    27    1
    31    25    28    1
