@<TRIPOS>MOLECULE
*****
 38 44 0 0 0
SMALL
GASTEIGER

@<TRIPOS>ATOM
      1 C         139.7087  141.2671  160.8283 C.3     1  UNL1        0.1558
      2 N         140.3163  140.5059  159.6875 N.3     1  UNL1       -0.2809
      3 C         140.5600  139.0313  159.8150 C.3     1  UNL1        0.1166
      4 C         140.1962  138.3179  161.0834 C.3     1  UNL1        0.0511
      5 C         139.5887  139.0791  162.2242 C.2     1  UNL1       -0.0037
      6 C         139.3449  140.5537  162.0967 C.2     1  UNL1        0.0784
      7 N         138.7363  141.0355  163.3802 N.2     1  UNL1       -0.2519
      8 C         138.6038  139.8588  164.3009 C.2     1  UNL1        0.0627
      9 C         138.0716  139.7321  165.6975 C.3     1  UNL1        0.0717
     10 C         138.0661  138.3963  166.3798 C.2     1  UNL1       -0.0198
     11 C         138.5930  137.1871  165.6653 C.2     1  UNL1       -0.0042
     12 C         139.1252  137.3138  164.2687 C.2     1  UNL1        0.0006
     13 C         139.1306  138.6497  163.5865 C.2     1  UNL1        0.0111
     14 H         141.2196  140.9379  159.4931 H       1  UNL1        0.1245
     15 C         139.2559  145.1618  164.3647 C.3     1  UNL1        0.0978
     16 C         138.9533  144.2046  163.2503 C.ar    1  UNL1        0.2369
     17 N         139.8656  143.1287  162.7400 N.ar    1  UNL1       -0.1928
     18 C         139.1615  142.4144  161.6248 C.ar    1  UNL1        0.2023
     19 N         137.8141  143.0486  161.4457 N.ar    1  UNL1       -0.0586
     20 O         137.6854  144.1551  162.4503 O.2     1  UNL1       -0.3373
     21 C         139.8825  142.3789  159.8366 C.ar    1  UNL1        0.0423
     22 C         139.0072  142.6448  158.6478 C.ar    1  UNL1        0.1194
     23 N         139.5459  143.8503  157.9360 N.ar    1  UNL1       -0.1679
     24 N         140.7540  144.3295  158.6849 N.ar    1  UNL1       -0.2476
     25 C         141.6046  145.5106  158.3228 C.3     1  UNL1        0.1537
     26 C         140.9620  143.4201  159.8595 C.ar    1  UNL1        0.0944
     27 C         141.1675  138.2701  158.6741 C.ar    1  UNL1        0.1318
     28 N         140.4742  137.8898  157.3996 N.ar    1  UNL1       -0.2298
     29 C         141.4532  137.1402  156.5453 C.ar    1  UNL1        0.0996
     30 C         142.7515  137.0573  157.2919 C.ar    1  UNL1        0.0927
     31 N         142.5750  137.7556  158.6077 N.ar    1  UNL1       -0.3386
     32 H         143.2622  137.8583  159.3051 H       1  UNL1        0.1672
     33 C         141.1815  136.5731  155.1834 C.ar    1  UNL1        0.0192
     34 C         139.9401  136.9687  154.4402 C.ar    1  UNL1        0.0015
     35 C         139.6684  136.4017  153.0784 C.ar    1  UNL1        0.0000
     36 C         140.6381  135.4389  152.4598 C.ar    1  UNL1        0.0000
     37 C         141.8795  135.0433  153.2030 C.ar    1  UNL1        0.0000
     38 C         142.1512  135.6103  154.5648 C.ar    1  UNL1        0.0015
@<TRIPOS>BOND
     1    15    16    1
     2    16    17   ar
     3    17    18   ar
     4     1    18    1
     5     1    21    1
     6    21    22   ar
     7    22    23   ar
     8    23    24   ar
     9    24    25    1
    10    24    26   ar
    11     1     2    1
    12     2     3    1
    13     3    27    1
    14    27    28   ar
    15    28    29   ar
    16    29    33    1
    17    33    34   ar
    18    34    35   ar
    19    35    36   ar
    20    36    37   ar
    21    37    38   ar
    22    29    30   ar
    23    30    31   ar
    24     3     4    1
    25     4     5    1
    26     5     6    2
    27     6     7    1
    28     7     8    2
    29     8     9    1
    30     9    10    1
    31    10    11    2
    32    11    12    1
    33    12    13    2
    34    18    19   ar
    35    19    20   ar
    36    20    16   ar
    37     6     1    1
    38    13     8    1
    39    26    21   ar
    40    31    27   ar
    41    13     5    1
    42    38    33   ar
    43     2    14    1
    44    31    32    1
@<TRIPOS>MOLECULE
*****
 38 44 0 0 0
SMALL
GASTEIGER

@<TRIPOS>ATOM
      1 C         140.7641  141.1526  159.8575 C.3     1  UNL1        0.1558
      2 N         141.0999  140.0790  158.8652 N.3     1  UNL1       -0.2809
      3 C         142.4156  139.3637  158.9507 C.3     1  UNL1        0.1166
      4 C         143.3955  139.7220  160.0285 C.3     1  UNL1        0.0511
      5 C         143.0596  140.7956  161.0207 C.2     1  UNL1       -0.0037
      6 C         141.7440  141.5109  160.9352 C.2     1  UNL1        0.0784
      7 N         141.6911  142.5182  162.0454 N.2     1  UNL1       -0.2519
      8 C         142.9740  142.4254  162.8170 C.2     1  UNL1        0.0627
      9 C         143.4813  143.1729  164.0145 C.3     1  UNL1        0.0717
     10 C         144.8345  142.8556  164.5787 C.2     1  UNL1       -0.0198
     11 C         145.6803  141.7910  163.9454 C.2     1  UNL1       -0.0042
     12 C         145.1730  141.0436  162.7479 C.2     1  UNL1        0.0006
     13 C         143.8199  141.3608  162.1837 C.2     1  UNL1        0.0111
     14 H         141.0578  140.5086  157.9410 H       1  UNL1        0.1245
     15 C         137.5465  143.6536  163.2149 C.3     1  UNL1        0.0978
     16 C         138.5163  143.3817  162.1034 C.ar    1  UNL1        0.2369
     17 N         139.0646  142.0389  161.7205 N.ar    1  UNL1       -0.1928
     18 C         139.9953  142.2320  160.5602 C.ar    1  UNL1        0.2023
     19 N         140.0223  143.6940  160.2259 N.ar    1  UNL1       -0.0586
     20 O         139.1082  144.4045  161.1797 O.2     1  UNL1       -0.3373
     21 C         139.5172  141.1692  159.0238 C.ar    1  UNL1        0.0423
     22 C         138.3949  140.1767  159.0963 C.ar    1  UNL1        0.1194
     23 N         137.3578  140.5754  158.0885 N.ar    1  UNL1       -0.1679
     24 N         137.8392  141.8142  157.3932 N.ar    1  UNL1       -0.2476
     25 C         137.1134  142.5558  156.3101 C.3     1  UNL1        0.1537
     26 C         139.1738  142.1812  157.9712 C.ar    1  UNL1        0.0944
     27 C         142.7515  138.2900  157.9584 C.ar    1  UNL1        0.1318
     28 N         142.3214  136.8550  158.0329 N.ar    1  UNL1       -0.2298
     29 C         142.8805  136.1410  156.8381 C.ar    1  UNL1        0.0996
     30 C         143.6560  137.1348  156.0252 C.ar    1  UNL1        0.0927
     31 N         143.5763  138.4630  156.7176 N.ar    1  UNL1       -0.3386
     32 H         143.9923  139.3011  156.4114 H       1  UNL1        0.1672
     33 C         142.6963  134.6881  156.5132 C.ar    1  UNL1        0.0192
     34 C         143.4907  133.6489  157.2472 C.ar    1  UNL1        0.0015
     35 C         143.3065  132.1962  156.9224 C.ar    1  UNL1        0.0000
     36 C         142.3279  131.7827  155.8635 C.ar    1  UNL1        0.0000
     37 C         141.5335  132.8219  155.1294 C.ar    1  UNL1        0.0000
     38 C         141.7177  134.2747  155.4542 C.ar    1  UNL1        0.0015
@<TRIPOS>BOND
     1    15    16    1
     2    16    17   ar
     3    17    18   ar
     4     1    18    1
     5     1    21    1
     6    21    22   ar
     7    22    23   ar
     8    23    24   ar
     9    24    25    1
    10    24    26   ar
    11     1     2    1
    12     2     3    1
    13     3    27    1
    14    27    28   ar
    15    28    29   ar
    16    29    33    1
    17    33    34   ar
    18    34    35   ar
    19    35    36   ar
    20    36    37   ar
    21    37    38   ar
    22    29    30   ar
    23    30    31   ar
    24     3     4    1
    25     4     5    1
    26     5     6    2
    27     6     7    1
    28     7     8    2
    29     8     9    1
    30     9    10    1
    31    10    11    2
    32    11    12    1
    33    12    13    2
    34    18    19   ar
    35    19    20   ar
    36    20    16   ar
    37     6     1    1
    38    13     8    1
    39    26    21   ar
    40    31    27   ar
    41    13     5    1
    42    38    33   ar
    43     2    14    1
    44    31    32    1
@<TRIPOS>MOLECULE
*****
 38 44 0 0 0
SMALL
GASTEIGER

@<TRIPOS>ATOM
      1 C         142.5416  139.8033  159.6583 C.3     1  UNL1        0.1558
      2 N         143.2157  140.2797  158.4059 N.3     1  UNL1       -0.2809
      3 C         144.1161  141.4786  158.4483 C.3     1  UNL1        0.1166
      4 C         144.3423  142.2013  159.7432 C.3     1  UNL1        0.0511
      5 C         143.6682  141.7249  160.9956 C.2     1  UNL1       -0.0037
      6 C         142.7678  140.5260  160.9532 C.2     1  UNL1        0.0784
      7 N         142.2437  140.2907  162.3388 N.2     1  UNL1       -0.2519
      8 C         142.8201  141.3443  163.2376 C.2     1  UNL1        0.0627
      9 C         142.6570  141.6110  164.7046 C.3     1  UNL1        0.0717
     10 C         143.3744  142.7641  165.3415 C.2     1  UNL1       -0.0198
     11 C         144.2548  143.6505  164.5113 C.2     1  UNL1       -0.0042
     12 C         144.4179  143.3838  163.0443 C.2     1  UNL1        0.0006
     13 C         143.7005  142.2307  162.4074 C.2     1  UNL1        0.0111
     14 H         142.4765  140.4902  157.7354 H       1  UNL1        0.1245
     15 C         138.4126  138.0262  162.4284 C.3     1  UNL1        0.0978
     16 C         139.7878  138.1594  161.8446 C.ar    1  UNL1        0.2369
     17 N         140.2428  139.2277  160.8950 N.ar    1  UNL1       -0.1928
     18 C         141.6856  138.9763  160.5713 C.ar    1  UNL1        0.2023
     19 N         142.1225  137.7525  161.3207 N.ar    1  UNL1       -0.0586
     20 O         140.9495  137.2477  162.1076 O.2     1  UNL1       -0.3373
     21 C         142.0181  138.7935  158.6806 C.ar    1  UNL1        0.0423
     22 C         140.6403  138.7720  158.0879 C.ar    1  UNL1        0.1194
     23 N         140.5512  137.5929  157.1648 N.ar    1  UNL1       -0.1679
     24 N         141.8739  136.8858  157.1870 N.ar    1  UNL1       -0.2476
     25 C         142.2278  135.6532  156.4090 C.3     1  UNL1        0.1537
     26 C         142.7805  137.6278  158.1238 C.ar    1  UNL1        0.0944
     27 C         144.7903  141.9550  157.1958 C.ar    1  UNL1        0.1318
     28 N         146.2584  141.8737  156.8993 N.ar    1  UNL1       -0.2298
     29 C         146.4902  142.4648  155.5403 C.ar    1  UNL1        0.0996
     30 C         145.1653  142.9114  154.9969 C.ar    1  UNL1        0.0927
     31 N         144.1147  142.5963  156.0202 N.ar    1  UNL1       -0.3386
     32 H         143.1509  142.7785  155.9350 H       1  UNL1        0.1672
     33 C         147.8144  142.5877  154.8464 C.ar    1  UNL1        0.0192
     34 C         148.9866  141.7800  155.3192 C.ar    1  UNL1        0.0015
     35 C         150.3108  141.9028  154.6254 C.ar    1  UNL1        0.0000
     36 C         150.4628  142.8334  153.4589 C.ar    1  UNL1        0.0000
     37 C         149.2906  143.6411  152.9861 C.ar    1  UNL1        0.0000
     38 C         147.9664  143.5182  153.6799 C.ar    1  UNL1        0.0015
@<TRIPOS>BOND
     1    15    16    1
     2    16    17   ar
     3    17    18   ar
     4     1    18    1
     5     1    21    1
     6    21    22   ar
     7    22    23   ar
     8    23    24   ar
     9    24    25    1
    10    24    26   ar
    11     1     2    1
    12     2     3    1
    13     3    27    1
    14    27    28   ar
    15    28    29   ar
    16    29    33    1
    17    33    34   ar
    18    34    35   ar
    19    35    36   ar
    20    36    37   ar
    21    37    38   ar
    22    29    30   ar
    23    30    31   ar
    24     3     4    1
    25     4     5    1
    26     5     6    2
    27     6     7    1
    28     7     8    2
    29     8     9    1
    30     9    10    1
    31    10    11    2
    32    11    12    1
    33    12    13    2
    34    18    19   ar
    35    19    20   ar
    36    20    16   ar
    37     6     1    1
    38    13     8    1
    39    26    21   ar
    40    31    27   ar
    41    13     5    1
    42    38    33   ar
    43     2    14    1
    44    31    32    1
@<TRIPOS>MOLECULE
*****
 38 44 0 0 0
SMALL
GASTEIGER

@<TRIPOS>ATOM
      1 C         141.5722  142.0286  161.7291 C.3     1  UNL1        0.1558
      2 N         141.8036  141.2845  160.4474 N.3     1  UNL1       -0.2809
      3 C         142.3711  139.8964  160.4781 C.3     1  UNL1        0.1166
      4 C         142.7072  139.2523  161.7904 C.3     1  UNL1        0.0511
      5 C         142.4759  139.9964  163.0721 C.2     1  UNL1       -0.0037
      6 C         141.9084  141.3846  163.0415 C.2     1  UNL1        0.0784
      7 N         141.7906  141.8685  164.4564 N.2     1  UNL1       -0.2519
      8 C         142.2853  140.7794  165.3615 C.2     1  UNL1        0.0627
      9 C         142.4047  140.6918  166.8541 C.3     1  UNL1        0.0717
     10 C         142.9478  139.4472  167.4912 C.2     1  UNL1       -0.0198
     11 C         143.3714  138.2902  166.6357 C.2     1  UNL1       -0.0042
     12 C         143.2519  138.3778  165.1430 C.2     1  UNL1        0.0006
     13 C         142.7088  139.6224  164.5059 C.2     1  UNL1        0.0111
     14 H         142.4418  141.8513  159.8890 H       1  UNL1        0.1245
     15 C         138.8248  144.9637  165.1522 C.3     1  UNL1        0.0978
     16 C         139.9136  144.4783  164.2418 C.ar    1  UNL1        0.2369
     17 N         139.8859  143.2187  163.4276 N.ar    1  UNL1       -0.1928
     18 C         141.1763  143.1292  162.6684 C.ar    1  UNL1        0.2023
     19 N         142.0017  144.3333  163.0133 N.ar    1  UNL1       -0.0586
     20 O         141.2212  145.1671  163.9857 O.2     1  UNL1       -0.3373
     21 C         141.0986  143.0549  160.7430 C.ar    1  UNL1        0.0423
     22 C         139.6693  143.4091  160.4570 C.ar    1  UNL1        0.1194
     23 N         139.6585  144.4803  159.4069 N.ar    1  UNL1       -0.1679
     24 N         141.0810  144.7881  159.0440 N.ar    1  UNL1       -0.2476
     25 C         141.5339  145.7992  158.0330 C.3     1  UNL1        0.1537
     26 C         141.9710  143.9071  159.8698 C.ar    1  UNL1        0.0944
     27 C         142.6025  139.1522  159.1963 C.ar    1  UNL1        0.1318
     28 N         142.2629  137.7141  158.9382 N.ar    1  UNL1       -0.2298
     29 C         142.6646  137.3886  157.5301 C.ar    1  UNL1        0.0996
     30 C         143.2523  138.6255  156.9181 C.ar    1  UNL1        0.0927
     31 N         143.2139  139.7154  157.9478 N.ar    1  UNL1       -0.3386
     32 H         143.5339  140.6385  157.8257 H       1  UNL1        0.1672
     33 C         142.5063  136.0595  156.8530 C.ar    1  UNL1        0.0192
     34 C         143.3592  134.8985  157.2710 C.ar    1  UNL1        0.0015
     35 C         143.2010  133.5694  156.5939 C.ar    1  UNL1        0.0000
     36 C         142.1897  133.4013  155.4989 C.ar    1  UNL1        0.0000
     37 C         141.3367  134.5622  155.0810 C.ar    1  UNL1        0.0000
     38 C         141.4950  135.8913  155.7580 C.ar    1  UNL1        0.0015
@<TRIPOS>BOND
     1    15    16    1
     2    16    17   ar
     3    17    18   ar
     4     1    18    1
     5     1    21    1
     6    21    22   ar
     7    22    23   ar
     8    23    24   ar
     9    24    25    1
    10    24    26   ar
    11     1     2    1
    12     2     3    1
    13     3    27    1
    14    27    28   ar
    15    28    29   ar
    16    29    33    1
    17    33    34   ar
    18    34    35   ar
    19    35    36   ar
    20    36    37   ar
    21    37    38   ar
    22    29    30   ar
    23    30    31   ar
    24     3     4    1
    25     4     5    1
    26     5     6    2
    27     6     7    1
    28     7     8    2
    29     8     9    1
    30     9    10    1
    31    10    11    2
    32    11    12    1
    33    12    13    2
    34    18    19   ar
    35    19    20   ar
    36    20    16   ar
    37     6     1    1
    38    13     8    1
    39    26    21   ar
    40    31    27   ar
    41    13     5    1
    42    38    33   ar
    43     2    14    1
    44    31    32    1
@<TRIPOS>MOLECULE
*****
 38 44 0 0 0
SMALL
GASTEIGER

@<TRIPOS>ATOM
      1 C         142.4609  142.6370  160.1326 C.3     1  UNL1        0.1558
      2 N         141.9316  143.2641  158.8770 N.3     1  UNL1       -0.2809
      3 C         140.7506  144.1868  158.9398 C.3     1  UNL1        0.1166
      4 C         140.0989  144.4822  160.2581 C.3     1  UNL1        0.0511
      5 C         140.6282  143.8551  161.5137 C.2     1  UNL1       -0.0037
      6 C         141.8092  142.9324  161.4509 C.2     1  UNL1        0.0784
      7 N         142.1068  142.4652  162.8449 N.2     1  UNL1       -0.2519
      8 C         141.1098  143.0990  163.7691 C.2     1  UNL1        0.0627
      9 C         140.9161  143.0050  165.2535 C.3     1  UNL1        0.0717
     10 C         139.8084  143.7700  165.9152 C.2     1  UNL1       -0.0198
     11 C         138.8945  144.6290  165.0925 C.2     1  UNL1       -0.0042
     12 C         139.0883  144.7230  163.6081 C.2     1  UNL1        0.0006
     13 C         140.1959  143.9580  162.9464 C.2     1  UNL1        0.0111
     14 H         141.6756  142.5002  158.2516 H       1  UNL1        0.1245
     15 C         144.1815  138.7082  163.2123 C.3     1  UNL1        0.0978
     16 C         144.1111  140.0013  162.4554 C.ar    1  UNL1        0.2369
     17 N         142.9654  140.4636  161.6047 N.ar    1  UNL1       -0.1928
     18 C         143.3202  141.8071  161.0398 C.ar    1  UNL1        0.2023
     19 N         144.6850  142.1751  161.5414 N.ar    1  UNL1       -0.0586
     20 O         145.1739  141.0590  162.4163 O.2     1  UNL1       -0.3373
     21 C         143.4111  142.0533  159.1294 C.ar    1  UNL1        0.0423
     22 C         143.4254  140.6313  158.6520 C.ar    1  UNL1        0.1194
     23 N         144.5370  140.4884  157.6549 N.ar    1  UNL1       -0.1679
     24 N         145.2096  141.8219  157.5161 N.ar    1  UNL1       -0.2476
     25 C         146.3735  142.1335  156.6229 C.3     1  UNL1        0.1537
     26 C         144.5137  142.7891  158.4273 C.ar    1  UNL1        0.0944
     27 C         140.2213  144.8140  157.6841 C.ar    1  UNL1        0.1318
     28 N         140.4271  146.2364  157.2547 N.ar    1  UNL1       -0.2298
     29 C         139.7263  146.4304  155.9427 C.ar    1  UNL1        0.0996
     30 C         139.0874  145.1280  155.5614 C.ar    1  UNL1        0.0927
     31 N         139.3933  144.1290  156.6377 N.ar    1  UNL1       -0.3386
     32 H         139.1019  143.1887  156.6543 H       1  UNL1        0.1672
     33 C         139.6736  147.7035  155.1511 C.ar    1  UNL1        0.0192
     34 C         140.3410  147.7808  153.8100 C.ar    1  UNL1        0.0015
     35 C         140.2883  149.0538  153.0184 C.ar    1  UNL1        0.0000
     36 C         139.5683  150.2495  153.5679 C.ar    1  UNL1        0.0000
     37 C         138.9010  150.1721  154.9090 C.ar    1  UNL1        0.0000
     38 C         138.9536  148.8991  155.7006 C.ar    1  UNL1        0.0015
@<TRIPOS>BOND
     1    15    16    1
     2    16    17   ar
     3    17    18   ar
     4     1    18    1
     5     1    21    1
     6    21    22   ar
     7    22    23   ar
     8    23    24   ar
     9    24    25    1
    10    24    26   ar
    11     1     2    1
    12     2     3    1
    13     3    27    1
    14    27    28   ar
    15    28    29   ar
    16    29    33    1
    17    33    34   ar
    18    34    35   ar
    19    35    36   ar
    20    36    37   ar
    21    37    38   ar
    22    29    30   ar
    23    30    31   ar
    24     3     4    1
    25     4     5    1
    26     5     6    2
    27     6     7    1
    28     7     8    2
    29     8     9    1
    30     9    10    1
    31    10    11    2
    32    11    12    1
    33    12    13    2
    34    18    19   ar
    35    19    20   ar
    36    20    16   ar
    37     6     1    1
    38    13     8    1
    39    26    21   ar
    40    31    27   ar
    41    13     5    1
    42    38    33   ar
    43     2    14    1
    44    31    32    1
@<TRIPOS>MOLECULE
*****
 38 44 0 0 0
SMALL
GASTEIGER

@<TRIPOS>ATOM
      1 C         139.9798  141.8443  161.1432 C.3     1  UNL1        0.1558
      2 N         140.7125  141.2430  159.9807 N.3     1  UNL1       -0.2809
      3 C         141.0282  139.7766  159.9705 C.3     1  UNL1        0.1166
      4 C         140.6111  138.9116  161.1228 C.3     1  UNL1        0.0511
      5 C         139.8783  139.5129  162.2853 C.2     1  UNL1       -0.0037
      6 C         139.5626  140.9793  162.2955 C.2     1  UNL1        0.0784
      7 N         138.8337  141.2876  163.5696 N.2     1  UNL1       -0.2519
      8 C         138.6988  140.0118  164.3469 C.2     1  UNL1        0.0627
      9 C         138.0716  139.7071  165.6750 C.3     1  UNL1        0.0717
     10 C         138.0899  138.3056  166.2092 C.2     1  UNL1       -0.0198
     11 C         138.7356  137.2088  165.4153 C.2     1  UNL1       -0.0042
     12 C         139.3628  137.5134  164.0873 C.2     1  UNL1        0.0006
     13 C         139.3445  138.9149  163.5531 C.2     1  UNL1        0.0111
     14 H         141.6023  141.7362  159.9064 H       1  UNL1        0.1245
     15 C         138.9494  145.1445  165.1340 C.3     1  UNL1        0.0978
     16 C         138.8375  144.3867  163.8445 C.ar    1  UNL1        0.2369
     17 N         139.8166  143.3738  163.3293 N.ar    1  UNL1       -0.1928
     18 C         139.3111  142.8697  162.0101 C.ar    1  UNL1        0.2023
     19 N         138.0196  143.5710  161.7099 N.ar    1  UNL1       -0.0586
     20 O         137.7269  144.5086  162.8436 O.2     1  UNL1       -0.3373
     21 C         140.1647  143.0654  160.2920 C.ar    1  UNL1        0.0423
     22 C         140.9276  144.2991  160.6740 C.ar    1  UNL1        0.1194
     23 N         140.8535  145.2635  159.5273 N.ar    1  UNL1       -0.1679
     24 N         140.0448  144.6258  158.4368 N.ar    1  UNL1       -0.2476
     25 C         139.7190  145.2389  157.1072 C.3     1  UNL1        0.1537
     26 C         139.6190  143.2673  158.9094 C.ar    1  UNL1        0.0944
     27 C         141.7611  139.1752  158.8080 C.ar    1  UNL1        0.1318
     28 N         141.6027  137.7745  158.2952 N.ar    1  UNL1       -0.2298
     29 C         142.5246  137.6026  157.1245 C.ar    1  UNL1        0.0996
     30 C         143.2527  138.8969  156.9138 C.ar    1  UNL1        0.0927
     31 N         142.7808  139.8689  157.9542 N.ar    1  UNL1       -0.3386
     32 H         143.0867  140.7989  158.0585 H       1  UNL1        0.1672
     33 C         142.6895  136.3551  156.3078 C.ar    1  UNL1        0.0192
     34 C         143.1757  135.0930  156.9563 C.ar    1  UNL1        0.0015
     35 C         143.3405  133.8456  156.1398 C.ar    1  UNL1        0.0000
     36 C         143.0192  133.8604  154.6747 C.ar    1  UNL1        0.0000
     37 C         142.5329  135.1225  154.0262 C.ar    1  UNL1        0.0000
     38 C         142.3681  136.3699  154.8428 C.ar    1  UNL1        0.0015
@<TRIPOS>BOND
     1    15    16    1
     2    16    17   ar
     3    17    18   ar
     4     1    18    1
     5     1    21    1
     6    21    22   ar
     7    22    23   ar
     8    23    24   ar
     9    24    25    1
    10    24    26   ar
    11     1     2    1
    12     2     3    1
    13     3    27    1
    14    27    28   ar
    15    28    29   ar
    16    29    33    1
    17    33    34   ar
    18    34    35   ar
    19    35    36   ar
    20    36    37   ar
    21    37    38   ar
    22    29    30   ar
    23    30    31   ar
    24     3     4    1
    25     4     5    1
    26     5     6    2
    27     6     7    1
    28     7     8    2
    29     8     9    1
    30     9    10    1
    31    10    11    2
    32    11    12    1
    33    12    13    2
    34    18    19   ar
    35    19    20   ar
    36    20    16   ar
    37     6     1    1
    38    13     8    1
    39    26    21   ar
    40    31    27   ar
    41    13     5    1
    42    38    33   ar
    43     2    14    1
    44    31    32    1
@<TRIPOS>MOLECULE
*****
 38 44 0 0 0
SMALL
GASTEIGER

@<TRIPOS>ATOM
      1 C         140.9998  141.8093  160.8722 C.3     1  UNL1        0.1558
      2 N         140.8937  141.0160  159.6036 N.3     1  UNL1       -0.2809
      3 C         140.2818  139.6467  159.6243 C.3     1  UNL1        0.1166
      4 C         139.7759  139.0706  160.9136 C.3     1  UNL1        0.0511
      5 C         139.8819  139.8639  162.1822 C.2     1  UNL1       -0.0037
      6 C         140.4939  141.2333  162.1615 C.2     1  UNL1        0.0784
      7 N         140.4634  141.7757  163.5597 N.2     1  UNL1       -0.2519
      8 C         139.8327  140.7416  164.4445 C.2     1  UNL1        0.0627
      9 C         139.5392  140.7233  165.9153 C.3     1  UNL1        0.0717
     10 C         138.8863  139.5233  166.5349 C.2     1  UNL1       -0.0198
     11 C         138.5269  138.3418  165.6835 C.2     1  UNL1       -0.0042
     12 C         138.8204  138.3601  164.2127 C.2     1  UNL1        0.0006
     13 C         139.4733  139.5601  163.5932 C.2     1  UNL1        0.0111
     14 H         141.8418  140.9094  159.2429 H       1  UNL1        0.1245
     15 C         143.6142  145.0679  164.1013 C.3     1  UNL1        0.0978
     16 C         142.5218  144.4367  163.2900 C.ar    1  UNL1        0.2369
     17 N         142.6552  143.2138  162.4317 N.ar    1  UNL1       -0.1928
     18 C         141.3202  142.9389  161.8058 C.ar    1  UNL1        0.2023
     19 N         140.3615  143.9919  162.2771 N.ar    1  UNL1       -0.0586
     20 O         141.1042  144.9176  163.1945 O.2     1  UNL1       -0.3373
     21 C         141.6169  142.7776  159.9072 C.ar    1  UNL1        0.0423
     22 C         143.0247  142.7320  159.3912 C.ar    1  UNL1        0.1194
     23 N         143.2124  143.8879  158.4537 N.ar    1  UNL1       -0.1679
     24 N         141.9208  144.6478  158.3903 N.ar    1  UNL1       -0.2476
     25 C         141.6608  145.8779  157.5723 C.3     1  UNL1        0.1537
     26 C         140.9346  143.9617  159.2886 C.ar    1  UNL1        0.0944
     27 C         140.1757  138.8533  158.3556 C.ar    1  UNL1        0.1318
     28 N         141.1236  137.7822  157.9038 N.ar    1  UNL1       -0.2298
     29 C         140.6368  137.2587  156.5851 C.ar    1  UNL1        0.0996
     30 C         139.3882  138.0063  156.2220 C.ar    1  UNL1        0.0927
     31 N         139.1031  138.9918  157.3162 N.ar    1  UNL1       -0.3386
     32 H         138.3452  139.6194  157.3468 H       1  UNL1        0.1672
     33 C         141.2851  136.1774  155.7722 C.ar    1  UNL1        0.0192
     34 C         140.7690  135.8590  154.4002 C.ar    1  UNL1        0.0015
     35 C         141.4172  134.7778  153.5874 C.ar    1  UNL1        0.0000
     36 C         142.5813  134.0149  154.1465 C.ar    1  UNL1        0.0000
     37 C         143.0974  134.3333  155.5185 C.ar    1  UNL1        0.0000
     38 C         142.4492  135.4145  156.3313 C.ar    1  UNL1        0.0015
@<TRIPOS>BOND
     1    15    16    1
     2    16    17   ar
     3    17    18   ar
     4     1    18    1
     5     1    21    1
     6    21    22   ar
     7    22    23   ar
     8    23    24   ar
     9    24    25    1
    10    24    26   ar
    11     1     2    1
    12     2     3    1
    13     3    27    1
    14    27    28   ar
    15    28    29   ar
    16    29    33    1
    17    33    34   ar
    18    34    35   ar
    19    35    36   ar
    20    36    37   ar
    21    37    38   ar
    22    29    30   ar
    23    30    31   ar
    24     3     4    1
    25     4     5    1
    26     5     6    2
    27     6     7    1
    28     7     8    2
    29     8     9    1
    30     9    10    1
    31    10    11    2
    32    11    12    1
    33    12    13    2
    34    18    19   ar
    35    19    20   ar
    36    20    16   ar
    37     6     1    1
    38    13     8    1
    39    26    21   ar
    40    31    27   ar
    41    13     5    1
    42    38    33   ar
    43     2    14    1
    44    31    32    1
@<TRIPOS>MOLECULE
*****
 38 44 0 0 0
SMALL
GASTEIGER

@<TRIPOS>ATOM
      1 C         141.5149  140.9035  160.1443 C.3     1  UNL1        0.1558
      2 N         141.0249  141.7138  158.9811 N.3     1  UNL1       -0.2809
      3 C         141.1849  143.2053  158.9856 C.3     1  UNL1        0.1166
      4 C         141.8348  143.8863  160.1534 C.3     1  UNL1        0.0511
      5 C         142.3248  143.0760  161.3167 C.2     1  UNL1       -0.0037
      6 C         142.1648  141.5846  161.3121 C.2     1  UNL1        0.0784
      7 N         142.7413  141.0527  162.5907 N.2     1  UNL1       -0.2519
      8 C         143.2575  142.2154  163.3855 C.2     1  UNL1        0.0627
      9 C         143.9288  142.2971  164.7244 C.3     1  UNL1        0.0717
     10 C         144.3425  143.6292  165.2759 C.2     1  UNL1       -0.0198
     11 C         144.0851  144.8797  164.4885 C.2     1  UNL1       -0.0042
     12 C         143.4139  144.7980  163.1496 C.2     1  UNL1        0.0006
     13 C         143.0001  143.4659  162.5981 C.2     1  UNL1        0.0111
     14 H         140.0267  141.5250  158.8903 H       1  UNL1        0.1245
     15 C         141.0717  137.0810  163.7600 C.3     1  UNL1        0.0978
     16 C         141.6118  137.9560  162.6679 C.ar    1  UNL1        0.2369
     17 N         140.9141  139.1346  162.0561 N.ar    1  UNL1       -0.1928
     18 C         141.8155  139.7130  161.0060 C.ar    1  UNL1        0.2023
     19 N         143.0703  138.8920  160.9688 N.ar    1  UNL1       -0.0586
     20 O         142.9444  137.8061  161.9959 O.2     1  UNL1       -0.3373
     21 C         140.9694  139.8090  159.2758 C.ar    1  UNL1        0.0423
     22 C         139.5702  139.2695  159.3118 C.ar    1  UNL1        0.1194
     23 N         139.4634  138.1888  158.2770 N.ar    1  UNL1       -0.1679
     24 N         140.7965  138.0604  157.6015 N.ar    1  UNL1       -0.2476
     25 C         141.1388  137.0994  156.5018 C.3     1  UNL1        0.1537
     26 C         141.7273  139.0617  158.2188 C.ar    1  UNL1        0.0944
     27 C         140.6948  144.0157  157.8223 C.ar    1  UNL1        0.1318
     28 N         140.4550  145.4964  157.8181 N.ar    1  UNL1       -0.2298
     29 C         139.9706  145.8835  156.4522 C.ar    1  UNL1        0.0996
     30 C         139.9111  144.6421  155.6124 C.ar    1  UNL1        0.0927
     31 N         140.3587  143.4877  156.4592 N.ar    1  UNL1       -0.3386
     32 H         140.4210  142.5484  156.1709 H       1  UNL1        0.1672
     33 C         139.6092  147.2689  156.0048 C.ar    1  UNL1        0.0192
     34 C         140.0541  147.7628  154.6601 C.ar    1  UNL1        0.0015
     35 C         139.6928  149.1481  154.2127 C.ar    1  UNL1        0.0000
     36 C         138.8864  150.0395  155.1099 C.ar    1  UNL1        0.0000
     37 C         138.4415  149.5457  156.4546 C.ar    1  UNL1        0.0000
     38 C         138.8028  148.1604  156.9020 C.ar    1  UNL1        0.0015
@<TRIPOS>BOND
     1    15    16    1
     2    16    17   ar
     3    17    18   ar
     4     1    18    1
     5     1    21    1
     6    21    22   ar
     7    22    23   ar
     8    23    24   ar
     9    24    25    1
    10    24    26   ar
    11     1     2    1
    12     2     3    1
    13     3    27    1
    14    27    28   ar
    15    28    29   ar
    16    29    33    1
    17    33    34   ar
    18    34    35   ar
    19    35    36   ar
    20    36    37   ar
    21    37    38   ar
    22    29    30   ar
    23    30    31   ar
    24     3     4    1
    25     4     5    1
    26     5     6    2
    27     6     7    1
    28     7     8    2
    29     8     9    1
    30     9    10    1
    31    10    11    2
    32    11    12    1
    33    12    13    2
    34    18    19   ar
    35    19    20   ar
    36    20    16   ar
    37     6     1    1
    38    13     8    1
    39    26    21   ar
    40    31    27   ar
    41    13     5    1
    42    38    33   ar
    43     2    14    1
    44    31    32    1
@<TRIPOS>MOLECULE
*****
 38 44 0 0 0
SMALL
GASTEIGER

@<TRIPOS>ATOM
      1 C         141.8649  143.7019  159.4704 C.3     1  UNL1        0.1558
      2 N         142.6087  143.3369  158.2201 N.3     1  UNL1       -0.2809
      3 C         143.9713  142.7166  158.3121 C.3     1  UNL1        0.1166
      4 C         144.5901  142.4612  159.6545 C.3     1  UNL1        0.0511
      5 C         143.8462  142.8261  160.9048 C.2     1  UNL1       -0.0037
      6 C         142.4836  143.4465  160.8128 C.2     1  UNL1        0.0784
      7 N         141.9938  143.6983  162.2080 N.2     1  UNL1       -0.2519
      8 C         143.0537  143.2336  163.1624 C.2     1  UNL1        0.0627
      9 C         143.1243  143.2317  164.6607 C.3     1  UNL1        0.0717
     10 C         144.3397  142.6907  165.3535 C.2     1  UNL1       -0.0198
     11 C         145.4845  142.1516  164.5481 C.2     1  UNL1       -0.0042
     12 C         145.4140  142.1536  163.0498 C.2     1  UNL1        0.0006
     13 C         144.1986  142.6946  162.3569 C.2     1  UNL1        0.0111
     14 H         142.7117  144.1947  157.6777 H       1  UNL1        0.1245
     15 C         137.7501  143.8977  162.7735 C.3     1  UNL1        0.0978
     16 C         138.8833  144.3079  161.8805 C.ar    1  UNL1        0.2369
     17 N         139.7881  143.3821  161.1226 N.ar    1  UNL1       -0.1928
     18 C         140.7746  144.2178  160.3622 C.ar    1  UNL1        0.2023
     19 N         140.4797  145.6600  160.6501 N.ar    1  UNL1       -0.0586
     20 O         139.3107  145.7157  161.5885 O.2     1  UNL1       -0.3373
     21 C         140.8675  144.1365  158.4378 C.ar    1  UNL1        0.0423
     22 C         139.7117  143.3252  157.9320 C.ar    1  UNL1        0.1194
     23 N         138.9807  144.1460  156.9112 N.ar    1  UNL1       -0.1679
     24 N         139.6847  145.4646  156.7861 N.ar    1  UNL1       -0.2476
     25 C         139.2917  146.5912  155.8772 C.3     1  UNL1        0.1537
     26 C         140.8509  145.4587  157.7296 C.ar    1  UNL1        0.0944
     27 C         144.7153  142.3516  157.0617 C.ar    1  UNL1        0.1318
     28 N         146.1861  142.5294  156.8273 N.ar    1  UNL1       -0.2298
     29 C         146.4989  142.0325  155.4469 C.ar    1  UNL1        0.0996
     30 C         145.2213  141.5476  154.8283 C.ar    1  UNL1        0.0927
     31 N         144.1190  141.7448  155.8263 N.ar    1  UNL1       -0.3386
     32 H         143.1706  141.5161  155.6938 H       1  UNL1        0.1672
     33 C         147.8517  142.0222  154.7990 C.ar    1  UNL1        0.0192
     34 C         147.9839  142.3160  153.3340 C.ar    1  UNL1        0.0015
     35 C         149.3366  142.3058  152.6860 C.ar    1  UNL1        0.0000
     36 C         150.5572  142.0018  153.5031 C.ar    1  UNL1        0.0000
     37 C         150.4251  141.7081  154.9681 C.ar    1  UNL1        0.0000
     38 C         149.0723  141.7183  155.6161 C.ar    1  UNL1        0.0015
@<TRIPOS>BOND
     1    15    16    1
     2    16    17   ar
     3    17    18   ar
     4     1    18    1
     5     1    21    1
     6    21    22   ar
     7    22    23   ar
     8    23    24   ar
     9    24    25    1
    10    24    26   ar
    11     1     2    1
    12     2     3    1
    13     3    27    1
    14    27    28   ar
    15    28    29   ar
    16    29    33    1
    17    33    34   ar
    18    34    35   ar
    19    35    36   ar
    20    36    37   ar
    21    37    38   ar
    22    29    30   ar
    23    30    31   ar
    24     3     4    1
    25     4     5    1
    26     5     6    2
    27     6     7    1
    28     7     8    2
    29     8     9    1
    30     9    10    1
    31    10    11    2
    32    11    12    1
    33    12    13    2
    34    18    19   ar
    35    19    20   ar
    36    20    16   ar
    37     6     1    1
    38    13     8    1
    39    26    21   ar
    40    31    27   ar
    41    13     5    1
    42    38    33   ar
    43     2    14    1
    44    31    32    1
