@<TRIPOS>MOLECULE
*****
 34 37 0 0 0
SMALL
GASTEIGER

@<TRIPOS>ATOM
      1 C         143.4142  138.1798  161.0912 C.3     1  UNL1        0.0206
      2 C         142.2879  138.1732  160.1005 C.3     1  UNL1        0.0956
      3 C         142.5608  137.8720  158.6567 C.3     1  UNL1        0.0900
      4 N         141.4346  137.8654  157.6660 N.3     1  UNL1       -0.2700
      5 C         140.0354  138.1599  158.1191 C.3     1  UNL1        0.0915
      6 C         139.7624  138.4611  159.5630 C.3     1  UNL1        0.1131
      7 N         140.8887  138.4677  160.5537 N.3     1  UNL1       -0.1541
      8 S         140.6157  138.7689  161.9976 S.O2    1  UNL1        0.0633
      9 O         140.4870  137.3013  162.2794 O.2     1  UNL1       -0.1528
     10 O         140.7443  140.2366  161.7158 O.2     1  UNL1       -0.1528
     11 C         140.3427  139.0701  163.4414 C.ar    1  UNL1        0.1222
     12 C         141.4204  138.8719  164.4657 C.ar    1  UNL1        0.0197
     13 C         141.1474  139.1731  165.9096 C.ar    1  UNL1       -0.0004
     14 C         139.7966  139.6724  166.3292 C.ar    1  UNL1        0.0099
     15 C         138.7188  139.8706  165.3049 C.ar    1  UNL1       -0.0004
     16 C         138.9918  139.5694  163.8611 C.ar    1  UNL1        0.0197
     17 C         139.5236  139.9735  167.7730 C.3     1  UNL1        0.1945
     18 C         139.2506  140.2747  169.2170 C.3     1  UNL1        0.0428
     19 O         138.3539  139.0348  167.7477 O.3     1  UNL1       -0.3751
     20 H         138.2683  138.6489  166.8619 H       1  UNL1        0.2110
     21 C         140.6932  140.9122  167.7984 C.3     1  UNL1        0.4230
     22 F         141.8629  141.8510  167.8238 F       1  UNL1       -0.1673
     23 F         140.2826  142.0287  166.8847 F       1  UNL1       -0.1673
     24 F         141.4083  139.9958  168.7465 F       1  UNL1       -0.1673
     25 C         141.7076  137.5642  156.2221 C.3     1  UNL1        0.0762
     26 C         143.0287  136.9827  155.8140 C.3     1  UNL1        0.0337
     27 C         144.4506  136.9084  155.3421 C.3     1  UNL1        0.0058
     28 C         143.7777  138.2409  155.4883 C.3     1  UNL1        0.0058
     29 C         142.7387  135.5225  155.9981 C.ar    1  UNL1       -0.0184
     30 C         143.5232  134.7219  156.9948 C.ar    1  UNL1        0.0164
     31 C         143.2332  133.2617  157.1788 C.ar    1  UNL1        0.0986
     32 N         142.1587  132.6023  156.3662 N.ar    1  UNL1       -0.2423
     33 C         141.3741  133.4030  155.3694 C.ar    1  UNL1        0.0986
     34 C         141.6642  134.8631  155.1854 C.ar    1  UNL1        0.0164
@<TRIPOS>BOND
     1     2     1    1
     2     2     3    1
     3     3     4    1
     4     4    25    1
     5    25    26    1
     6    26    29    1
     7    29    30   ar
     8    30    31   ar
     9    31    32   ar
    10    32    33   ar
    11    33    34   ar
    12    26    27    1
    13    27    28    1
    14     4     5    1
    15     5     6    1
    16     6     7    1
    17     7     8    1
    18     8     9    2
    19     8    10    2
    20     8    11    1
    21    11    12   ar
    22    12    13   ar
    23    13    14   ar
    24    14    17    1
    25    17    18    1
    26    17    19    1
    27    17    21    1
    28    21    22    1
    29    21    23    1
    30    21    24    1
    31    14    15   ar
    32    15    16   ar
    33     7     2    1
    34    16    11   ar
    35    28    26    1
    36    34    29   ar
    37    19    20    1
@<TRIPOS>MOLECULE
*****
 34 37 0 0 0
SMALL
GASTEIGER

@<TRIPOS>ATOM
      1 C         138.5002  139.2639  160.1467 C.3     1  UNL1        0.0206
      2 C         139.8409  138.7514  159.7111 C.3     1  UNL1        0.0956
      3 C         140.0928  138.4448  158.2646 C.3     1  UNL1        0.0900
      4 N         141.4336  137.9323  157.8290 N.3     1  UNL1       -0.2700
      5 C         142.5224  137.7264  158.8399 C.3     1  UNL1        0.0915
      6 C         142.2705  138.0331  160.2865 C.3     1  UNL1        0.1131
      7 N         140.9297  138.5456  160.7220 N.3     1  UNL1       -0.1541
      8 S         140.6778  138.8522  162.1686 S.O2    1  UNL1        0.0633
      9 O         141.1197  140.2681  161.9454 O.2     1  UNL1       -0.1528
     10 O         140.2360  137.4363  162.3919 O.2     1  UNL1       -0.1528
     11 C         140.4260  139.1589  163.6152 C.ar    1  UNL1        0.1222
     12 C         139.0741  139.6363  164.0563 C.ar    1  UNL1        0.0197
     13 C         138.8223  139.9430  165.5029 C.ar    1  UNL1       -0.0004
     14 C         139.9223  139.7723  166.5083 C.ar    1  UNL1        0.0099
     15 C         141.2741  139.2948  166.0672 C.ar    1  UNL1       -0.0004
     16 C         141.5260  138.9881  164.6206 C.ar    1  UNL1        0.0197
     17 C         139.6704  140.0789  167.9548 C.3     1  UNL1        0.1945
     18 C         139.4186  140.3857  169.4014 C.3     1  UNL1        0.0428
     19 O         138.4890  139.1548  167.9450 O.3     1  UNL1       -0.3751
     20 H         138.3879  138.7686  167.0610 H       1  UNL1        0.2110
     21 C         140.8518  141.0031  167.9646 C.3     1  UNL1        0.4230
     22 F         142.0333  141.9273  167.9744 F       1  UNL1       -0.1673
     23 F         141.9105  140.2313  168.6949 F       1  UNL1       -0.1673
     24 F         140.0554  142.0292  167.2142 F       1  UNL1       -0.1673
     25 C         141.6855  137.6256  156.3824 C.3     1  UNL1        0.0762
     26 C         143.0073  137.0598  155.9548 C.3     1  UNL1        0.0337
     27 C         144.4309  137.0033  155.4858 C.3     1  UNL1        0.0058
     28 C         143.7597  138.3295  155.6870 C.3     1  UNL1        0.0058
     29 C         142.7139  135.5937  156.0741 C.ar    1  UNL1       -0.0184
     30 C         143.4751  134.7540  157.0567 C.ar    1  UNL1        0.0164
     31 C         143.1817  133.2878  157.1760 C.ar    1  UNL1        0.0986
     32 N         142.1272  132.6613  156.3127 N.ar    1  UNL1       -0.2423
     33 C         141.3659  133.5010  155.3301 C.ar    1  UNL1        0.0986
     34 C         141.6593  134.9672  155.2108 C.ar    1  UNL1        0.0164
@<TRIPOS>BOND
     1     2     1    1
     2     2     3    1
     3     3     4    1
     4     4    25    1
     5    25    26    1
     6    26    29    1
     7    29    30   ar
     8    30    31   ar
     9    31    32   ar
    10    32    33   ar
    11    33    34   ar
    12    26    27    1
    13    27    28    1
    14     4     5    1
    15     5     6    1
    16     6     7    1
    17     7     8    1
    18     8     9    2
    19     8    10    2
    20     8    11    1
    21    11    12   ar
    22    12    13   ar
    23    13    14   ar
    24    14    17    1
    25    17    18    1
    26    17    19    1
    27    17    21    1
    28    21    22    1
    29    21    23    1
    30    21    24    1
    31    14    15   ar
    32    15    16   ar
    33     7     2    1
    34    16    11   ar
    35    28    26    1
    36    34    29   ar
    37    19    20    1
@<TRIPOS>MOLECULE
*****
 34 37 0 0 0
SMALL
GASTEIGER

@<TRIPOS>ATOM
      1 C         145.3213  141.8708  163.1714 C.3     1  UNL1        0.0206
      2 C         144.3012  142.3634  162.1881 C.3     1  UNL1        0.0956
      3 C         144.6497  142.4634  160.7326 C.3     1  UNL1        0.0900
      4 N         143.6296  142.9559  159.7493 N.3     1  UNL1       -0.2700
      5 C         142.2611  143.3485  160.2215 C.3     1  UNL1        0.0915
      6 C         141.9127  143.2485  161.6770 C.3     1  UNL1        0.1131
      7 N         142.9327  142.7559  162.6603 N.3     1  UNL1       -0.1541
      8 S         142.5842  142.6559  164.1159 S.O2    1  UNL1        0.0633
      9 O         142.1498  141.2345  163.9142 O.2     1  UNL1       -0.1528
     10 O         143.0186  144.0774  164.3176 O.2     1  UNL1       -0.1528
     11 C         142.2356  142.5559  165.5714 C.ar    1  UNL1        0.1222
     12 C         143.3133  142.3103  166.5855 C.ar    1  UNL1        0.0197
     13 C         142.9647  142.2103  168.0410 C.ar    1  UNL1       -0.0004
     14 C         141.5385  142.3558  168.4824 C.ar    1  UNL1        0.0099
     15 C         140.4609  142.6014  167.4683 C.ar    1  UNL1       -0.0004
     16 C         140.8094  142.7014  166.0128 C.ar    1  UNL1        0.0197
     17 C         141.1900  142.2558  169.9379 C.3     1  UNL1        0.1945
     18 C         140.8414  142.1557  171.3934 C.3     1  UNL1        0.0428
     19 O         142.1061  143.4053  170.2363 O.3     1  UNL1       -0.3751
     20 H         142.5161  143.7141  169.4132 H       1  UNL1        0.2110
     21 C         140.2738  141.1062  169.6395 C.3     1  UNL1        0.4230
     22 F         139.3577  139.9565  169.3411 F       1  UNL1       -0.1673
     23 F         141.1811  140.0584  169.0658 F       1  UNL1       -0.1673
     24 F         139.1102  141.8993  170.1564 F       1  UNL1       -0.1673
     25 C         143.9782  143.0559  158.2938 C.3     1  UNL1        0.0762
     26 C         144.4510  141.8418  157.5507 C.3     1  UNL1        0.0337
     27 C         145.3524  140.9228  156.7807 C.3     1  UNL1        0.0058
     28 C         145.8489  142.2698  157.2150 C.3     1  UNL1        0.0058
     29 C         143.2174  140.9920  157.6282 C.ar    1  UNL1       -0.0184
     30 C         143.2513  139.6862  158.3656 C.ar    1  UNL1        0.0164
     31 C         142.0176  138.8365  158.4432 C.ar    1  UNL1        0.0986
     32 N         140.7501  139.2925  157.7834 N.ar    1  UNL1       -0.2423
     33 C         140.7162  140.5983  157.0460 C.ar    1  UNL1        0.0986
     34 C         141.9499  141.4481  156.9684 C.ar    1  UNL1        0.0164
@<TRIPOS>BOND
     1     2     1    1
     2     2     3    1
     3     3     4    1
     4     4    25    1
     5    25    26    1
     6    26    29    1
     7    29    30   ar
     8    30    31   ar
     9    31    32   ar
    10    32    33   ar
    11    33    34   ar
    12    26    27    1
    13    27    28    1
    14     4     5    1
    15     5     6    1
    16     6     7    1
    17     7     8    1
    18     8     9    2
    19     8    10    2
    20     8    11    1
    21    11    12   ar
    22    12    13   ar
    23    13    14   ar
    24    14    17    1
    25    17    18    1
    26    17    19    1
    27    17    21    1
    28    21    22    1
    29    21    23    1
    30    21    24    1
    31    14    15   ar
    32    15    16   ar
    33     7     2    1
    34    16    11   ar
    35    28    26    1
    36    34    29   ar
    37    19    20    1
@<TRIPOS>MOLECULE
*****
 34 37 0 0 0
SMALL
GASTEIGER

@<TRIPOS>ATOM
      1 C         140.0087  145.3527  162.9211 C.3     1  UNL1        0.0206
      2 C         140.9845  144.6756  162.0050 C.3     1  UNL1        0.0956
      3 C         141.0493  145.0653  160.5580 C.3     1  UNL1        0.0900
      4 N         142.0251  144.3882  159.6418 N.3     1  UNL1       -0.2700
      5 C         142.9360  143.3213  160.1726 C.3     1  UNL1        0.0915
      6 C         142.8712  142.9315  161.6196 C.3     1  UNL1        0.1131
      7 N         141.8955  143.6086  162.5358 N.3     1  UNL1       -0.1541
      8 S         141.8307  143.2188  163.9828 S.O2    1  UNL1        0.0633
      9 O         142.8792  144.2418  164.3053 O.2     1  UNL1       -0.1528
     10 O         140.7822  142.1958  163.6603 O.2     1  UNL1       -0.1528
     11 C         141.7660  142.8290  165.4298 C.ar    1  UNL1        0.1222
     12 C         143.0262  142.5076  166.1771 C.ar    1  UNL1        0.0197
     13 C         142.9614  142.1178  167.6242 C.ar    1  UNL1       -0.0004
     14 C         141.6364  142.0494  168.3239 C.ar    1  UNL1        0.0099
     15 C         140.3762  142.3708  167.5766 C.ar    1  UNL1       -0.0004
     16 C         140.4409  142.7606  166.1296 C.ar    1  UNL1        0.0197
     17 C         141.5717  141.6596  169.7709 C.3     1  UNL1        0.1945
     18 C         141.5069  141.2699  171.2179 C.3     1  UNL1        0.0428
     19 O         142.3693  140.4245  169.4738 O.3     1  UNL1       -0.3751
     20 H         142.5807  140.3959  168.5276 H       1  UNL1        0.2110
     21 C         140.7741  142.8948  170.0679 C.3     1  UNL1        0.4230
     22 F         139.9765  144.1300  170.3649 F       1  UNL1       -0.1673
     23 F         141.7759  144.0067  169.9675 F       1  UNL1       -0.1673
     24 F         139.5426  142.0569  170.2454 F       1  UNL1       -0.1673
     25 C         142.0899  144.7781  158.1947 C.3     1  UNL1        0.0762
     26 C         140.8389  144.8005  157.3673 C.3     1  UNL1        0.0337
     27 C         139.7235  145.3254  156.5128 C.3     1  UNL1        0.0058
     28 C         140.7945  146.2546  157.0016 C.3     1  UNL1        0.0058
     29 C         140.4487  143.3543  157.4457 C.ar    1  UNL1       -0.0184
     30 C         141.3559  142.3011  156.8819 C.ar    1  UNL1        0.0164
     31 C         140.9658  140.8549  156.9602 C.ar    1  UNL1        0.0986
     32 N         139.6685  140.4618  157.6024 N.ar    1  UNL1       -0.2423
     33 C         138.7613  141.5150  158.1662 C.ar    1  UNL1        0.0986
     34 C         139.1514  142.9612  158.0879 C.ar    1  UNL1        0.0164
@<TRIPOS>BOND
     1     2     1    1
     2     2     3    1
     3     3     4    1
     4     4    25    1
     5    25    26    1
     6    26    29    1
     7    29    30   ar
     8    30    31   ar
     9    31    32   ar
    10    32    33   ar
    11    33    34   ar
    12    26    27    1
    13    27    28    1
    14     4     5    1
    15     5     6    1
    16     6     7    1
    17     7     8    1
    18     8     9    2
    19     8    10    2
    20     8    11    1
    21    11    12   ar
    22    12    13   ar
    23    13    14   ar
    24    14    17    1
    25    17    18    1
    26    17    19    1
    27    17    21    1
    28    21    22    1
    29    21    23    1
    30    21    24    1
    31    14    15   ar
    32    15    16   ar
    33     7     2    1
    34    16    11   ar
    35    28    26    1
    36    34    29   ar
    37    19    20    1
@<TRIPOS>MOLECULE
*****
 34 37 0 0 0
SMALL
GASTEIGER

@<TRIPOS>ATOM
      1 C         139.4279  138.5163  162.4933 C.3     1  UNL1        0.0206
      2 C         140.8214  138.4681  161.9402 C.3     1  UNL1        0.0956
      3 C         141.0440  138.1247  160.4971 C.3     1  UNL1        0.0900
      4 N         142.4375  138.0765  159.9440 N.3     1  UNL1       -0.2700
      5 C         143.6083  138.3717  160.8339 C.3     1  UNL1        0.0915
      6 C         143.3857  138.7151  162.2770 C.3     1  UNL1        0.1131
      7 N         141.9922  138.7633  162.8301 N.3     1  UNL1       -0.1541
      8 S         141.7696  139.1067  164.2733 S.O2    1  UNL1        0.0633
      9 O         141.6647  140.5586  163.9115 O.2     1  UNL1       -0.1528
     10 O         141.8746  137.6548  164.6350 O.2     1  UNL1       -0.1528
     11 C         141.5470  139.4502  165.7163 C.ar    1  UNL1        0.1222
     12 C         142.6592  139.2792  166.7082 C.ar    1  UNL1        0.0197
     13 C         142.4366  139.6227  168.1513 C.ar    1  UNL1       -0.0004
     14 C         141.1018  140.1371  168.6025 C.ar    1  UNL1        0.0099
     15 C         139.9896  140.3081  167.6106 C.ar    1  UNL1       -0.0004
     16 C         140.2122  139.9647  166.1676 C.ar    1  UNL1        0.0197
     17 C         140.8792  140.4806  170.0455 C.3     1  UNL1        0.1945
     18 C         140.6566  140.8241  171.4887 C.3     1  UNL1        0.0428
     19 O         141.2484  139.0801  170.4358 O.3     1  UNL1       -0.3751
     20 H         141.4636  138.5688  169.6401 H       1  UNL1        0.2110
     21 C         140.5101  141.8811  169.6553 C.3     1  UNL1        0.4230
     22 F         140.1409  143.2816  169.2650 F       1  UNL1       -0.1673
     23 F         141.7799  142.4479  169.0929 F       1  UNL1       -0.1673
     24 F         139.1092  141.6462  170.1375 F       1  UNL1       -0.1673
     25 C         142.6601  137.7331  158.5009 C.3     1  UNL1        0.0762
     26 C         141.9421  138.4978  157.4286 C.3     1  UNL1        0.0337
     27 C         141.0198  138.7891  156.2822 C.3     1  UNL1        0.0058
     28 C         141.1042  137.4004  156.8426 C.3     1  UNL1        0.0058
     29 C         142.5308  139.8609  157.6422 C.ar    1  UNL1       -0.0184
     30 C         141.6571  140.9923  158.0967 C.ar    1  UNL1        0.0164
     31 C         142.2457  142.3553  158.3103 C.ar    1  UNL1        0.0986
     32 N         143.7080  142.5869  158.0694 N.ar    1  UNL1       -0.2423
     33 C         144.5817  141.4555  157.6148 C.ar    1  UNL1        0.0986
     34 C         143.9930  140.0925  157.4012 C.ar    1  UNL1        0.0164
@<TRIPOS>BOND
     1     2     1    1
     2     2     3    1
     3     3     4    1
     4     4    25    1
     5    25    26    1
     6    26    29    1
     7    29    30   ar
     8    30    31   ar
     9    31    32   ar
    10    32    33   ar
    11    33    34   ar
    12    26    27    1
    13    27    28    1
    14     4     5    1
    15     5     6    1
    16     6     7    1
    17     7     8    1
    18     8     9    2
    19     8    10    2
    20     8    11    1
    21    11    12   ar
    22    12    13   ar
    23    13    14   ar
    24    14    17    1
    25    17    18    1
    26    17    19    1
    27    17    21    1
    28    21    22    1
    29    21    23    1
    30    21    24    1
    31    14    15   ar
    32    15    16   ar
    33     7     2    1
    34    16    11   ar
    35    28    26    1
    36    34    29   ar
    37    19    20    1
@<TRIPOS>MOLECULE
*****
 34 37 0 0 0
SMALL
GASTEIGER

@<TRIPOS>ATOM
      1 C         138.8054  139.4645  161.3934 C.3     1  UNL1        0.0206
      2 C         139.3840  140.8264  161.1479 C.3     1  UNL1        0.0956
      3 C         139.0293  141.9668  162.0555 C.3     1  UNL1        0.0900
      4 N         139.6079  143.3287  161.8099 N.3     1  UNL1       -0.2700
      5 C         140.5412  143.5503  160.6567 C.3     1  UNL1        0.0915
      6 C         140.8959  142.4100  159.7491 C.3     1  UNL1        0.1131
      7 N         140.3173  141.0480  159.9947 N.3     1  UNL1       -0.1541
      8 S         140.6720  139.9077  159.0870 S.O2    1  UNL1        0.0633
      9 O         139.4753  140.2131  158.2357 O.2     1  UNL1       -0.1528
     10 O         141.8686  139.6022  159.9383 O.2     1  UNL1       -0.1528
     11 C         141.0266  138.7674  158.1793 C.ar    1  UNL1        0.1222
     12 C         140.0672  138.3324  157.1115 C.ar    1  UNL1        0.0197
     13 C         140.4219  137.1920  156.2038 C.ar    1  UNL1       -0.0004
     14 C         141.7360  136.4867  156.3640 C.ar    1  UNL1        0.0099
     15 C         142.6954  136.9217  157.4318 C.ar    1  UNL1       -0.0004
     16 C         142.3408  138.0620  158.3395 C.ar    1  UNL1        0.0197
     17 C         142.0906  135.3464  155.4563 C.3     1  UNL1        0.1945
     18 C         142.4454  134.2061  154.5486 C.3     1  UNL1        0.0428
     19 O         140.6896  134.8222  155.5674 O.3     1  UNL1       -0.3751
     20 H         140.1714  135.4045  156.1448 H       1  UNL1        0.2110
     21 C         143.4916  135.8706  155.3452 C.3     1  UNL1        0.4230
     22 F         144.8927  136.3948  155.2341 F       1  UNL1       -0.1673
     23 F         144.2877  134.9723  156.2449 F       1  UNL1       -0.1673
     24 F         143.0206  136.9272  154.3903 F       1  UNL1       -0.1673
     25 C         139.2532  144.4691  162.7176 C.3     1  UNL1        0.0762
     26 C         139.4375  144.3330  164.2000 C.3     1  UNL1        0.0337
     27 C         139.1028  144.2374  165.6590 C.3     1  UNL1        0.0058
     28 C         138.0075  144.4022  164.6477 C.3     1  UNL1        0.0058
     29 C         140.9314  144.2165  164.2672 C.ar    1  UNL1       -0.0184
     30 C         141.7948  145.3009  163.6938 C.ar    1  UNL1        0.0164
     31 C         143.2888  145.1843  163.7610 C.ar    1  UNL1        0.0986
     32 N         143.9193  143.9835  164.4016 N.ar    1  UNL1       -0.2423
     33 C         143.0559  142.8991  164.9749 C.ar    1  UNL1        0.0986
     34 C         141.5620  143.0156  164.9077 C.ar    1  UNL1        0.0164
@<TRIPOS>BOND
     1     2     1    1
     2     2     3    1
     3     3     4    1
     4     4    25    1
     5    25    26    1
     6    26    29    1
     7    29    30   ar
     8    30    31   ar
     9    31    32   ar
    10    32    33   ar
    11    33    34   ar
    12    26    27    1
    13    27    28    1
    14     4     5    1
    15     5     6    1
    16     6     7    1
    17     7     8    1
    18     8     9    2
    19     8    10    2
    20     8    11    1
    21    11    12   ar
    22    12    13   ar
    23    13    14   ar
    24    14    17    1
    25    17    18    1
    26    17    19    1
    27    17    21    1
    28    21    22    1
    29    21    23    1
    30    21    24    1
    31    14    15   ar
    32    15    16   ar
    33     7     2    1
    34    16    11   ar
    35    28    26    1
    36    34    29   ar
    37    19    20    1
@<TRIPOS>MOLECULE
*****
 34 37 0 0 0
SMALL
GASTEIGER

@<TRIPOS>ATOM
      1 C         138.0841  139.6175  162.6434 C.3     1  UNL1        0.0206
      2 C         139.2540  139.1990  161.8030 C.3     1  UNL1        0.0956
      3 C         139.0628  138.9052  160.3446 C.3     1  UNL1        0.0900
      4 N         140.2327  138.4866  159.5042 N.3     1  UNL1       -0.2700
      5 C         141.5937  138.3618  160.1223 C.3     1  UNL1        0.0915
      6 C         141.7848  138.6556  161.5807 C.3     1  UNL1        0.1131
      7 N         140.6150  139.0742  162.4211 N.3     1  UNL1       -0.1541
      8 S         140.8062  139.3680  163.8796 S.O2    1  UNL1        0.0633
      9 O         141.1036  140.8012  163.5519 O.2     1  UNL1       -0.1528
     10 O         140.5088  137.9348  164.2073 O.2     1  UNL1       -0.1528
     11 C         140.9974  139.6618  165.3380 C.ar    1  UNL1        0.1222
     12 C         139.8388  140.1322  166.1665 C.ar    1  UNL1        0.0197
     13 C         140.0301  140.4261  167.6250 C.ar    1  UNL1       -0.0004
     14 C         141.3798  140.2495  168.2550 C.ar    1  UNL1        0.0099
     15 C         142.5384  139.7790  167.4265 C.ar    1  UNL1       -0.0004
     16 C         142.3472  139.4852  165.9681 C.ar    1  UNL1        0.0197
     17 C         141.5710  140.5433  169.7134 C.3     1  UNL1        0.1945
     18 C         141.7623  140.8372  171.1719 C.3     1  UNL1        0.0428
     19 O         140.5012  139.5486  170.0540 O.3     1  UNL1       -0.3751
     20 H         140.1540  139.1551  169.2383 H       1  UNL1        0.2110
     21 C         142.6408  141.5380  169.3728 C.3     1  UNL1        0.4230
     22 F         143.7107  142.5327  169.0321 F       1  UNL1       -0.1673
     23 F         141.9229  142.5831  168.5714 F       1  UNL1       -0.1673
     24 F         143.6477  140.7089  170.1138 F       1  UNL1       -0.1673
     25 C         140.0415  138.1928  158.0457 C.3     1  UNL1        0.0762
     26 C         141.1170  138.5473  157.0620 C.3     1  UNL1        0.0337
     27 C         142.0364  139.3789  156.2175 C.3     1  UNL1        0.0058
     28 C         141.0411  140.0442  157.1212 C.3     1  UNL1        0.0058
     29 C         141.5664  137.1735  156.6611 C.ar    1  UNL1       -0.0184
     30 C         142.8135  136.5891  157.2555 C.ar    1  UNL1        0.0164
     31 C         143.2629  135.2153  156.8545 C.ar    1  UNL1        0.0986
     32 N         142.4653  134.4260  155.8593 N.ar    1  UNL1       -0.2423
     33 C         141.2182  135.0103  155.2649 C.ar    1  UNL1        0.0986
     34 C         140.7688  136.3841  155.6658 C.ar    1  UNL1        0.0164
@<TRIPOS>BOND
     1     2     1    1
     2     2     3    1
     3     3     4    1
     4     4    25    1
     5    25    26    1
     6    26    29    1
     7    29    30   ar
     8    30    31   ar
     9    31    32   ar
    10    32    33   ar
    11    33    34   ar
    12    26    27    1
    13    27    28    1
    14     4     5    1
    15     5     6    1
    16     6     7    1
    17     7     8    1
    18     8     9    2
    19     8    10    2
    20     8    11    1
    21    11    12   ar
    22    12    13   ar
    23    13    14   ar
    24    14    17    1
    25    17    18    1
    26    17    19    1
    27    17    21    1
    28    21    22    1
    29    21    23    1
    30    21    24    1
    31    14    15   ar
    32    15    16   ar
    33     7     2    1
    34    16    11   ar
    35    28    26    1
    36    34    29   ar
    37    19    20    1
@<TRIPOS>MOLECULE
*****
 34 37 0 0 0
SMALL
GASTEIGER

@<TRIPOS>ATOM
      1 C         143.5594  141.1592  162.3543 C.3     1  UNL1        0.0206
      2 C         142.9264  142.3671  161.7295 C.3     1  UNL1        0.0956
      3 C         143.0961  142.6285  160.2623 C.3     1  UNL1        0.0900
      4 N         142.4631  143.8364  159.6376 N.3     1  UNL1       -0.2700
      5 C         141.6603  144.7828  160.4801 C.3     1  UNL1        0.0915
      6 C         141.4906  144.5214  161.9473 C.3     1  UNL1        0.1131
      7 N         142.1236  143.3135  162.5720 N.3     1  UNL1       -0.1541
      8 S         141.9538  143.0520  164.0393 S.O2    1  UNL1        0.0633
      9 O         143.2199  143.8057  164.3201 O.2     1  UNL1       -0.1528
     10 O         140.6877  142.2983  163.7586 O.2     1  UNL1       -0.1528
     11 C         141.7841  142.7906  165.5065 C.ar    1  UNL1        0.1222
     12 C         140.4570  143.0316  166.1627 C.ar    1  UNL1        0.0197
     13 C         140.2873  142.7702  167.6300 C.ar    1  UNL1       -0.0004
     14 C         141.4447  142.2678  168.4411 C.ar    1  UNL1        0.0099
     15 C         142.7719  142.0268  167.7849 C.ar    1  UNL1       -0.0004
     16 C         142.9416  142.2882  166.3177 C.ar    1  UNL1        0.0197
     17 C         141.2750  142.0064  169.9083 C.3     1  UNL1        0.1945
     18 C         141.1052  141.7449  171.3756 C.3     1  UNL1        0.0428
     19 O         142.4754  142.8576  170.1988 O.3     1  UNL1       -0.3751
     20 H         142.8376  143.2005  169.3669 H       1  UNL1        0.2110
     21 C         140.0746  141.1552  169.6178 C.3     1  UNL1        0.4230
     22 F         138.8742  140.3039  169.3273 F       1  UNL1       -0.1673
     23 F         140.6349  139.9792  168.8740 F       1  UNL1       -0.1673
     24 F         139.1977  142.1548  170.3120 F       1  UNL1       -0.1673
     25 C         142.6329  144.0979  158.1703 C.3     1  UNL1        0.0762
     26 C         141.4538  144.5130  157.3411 C.3     1  UNL1        0.0337
     27 C         140.5575  145.3653  156.4925 C.3     1  UNL1        0.0058
     28 C         141.8583  145.9158  156.9970 C.3     1  UNL1        0.0058
     29 C         140.6398  143.2544  157.3973 C.ar    1  UNL1       -0.0184
     30 C         141.1969  141.9756  156.8454 C.ar    1  UNL1        0.0164
     31 C         140.3828  140.7170  156.9015 C.ar    1  UNL1        0.0986
     32 N         139.0117  140.7371  157.5095 N.ar    1  UNL1       -0.2423
     33 C         138.4546  142.0158  158.0614 C.ar    1  UNL1        0.0986
     34 C         139.2687  143.2745  158.0052 C.ar    1  UNL1        0.0164
@<TRIPOS>BOND
     1     2     1    1
     2     2     3    1
     3     3     4    1
     4     4    25    1
     5    25    26    1
     6    26    29    1
     7    29    30   ar
     8    30    31   ar
     9    31    32   ar
    10    32    33   ar
    11    33    34   ar
    12    26    27    1
    13    27    28    1
    14     4     5    1
    15     5     6    1
    16     6     7    1
    17     7     8    1
    18     8     9    2
    19     8    10    2
    20     8    11    1
    21    11    12   ar
    22    12    13   ar
    23    13    14   ar
    24    14    17    1
    25    17    18    1
    26    17    19    1
    27    17    21    1
    28    21    22    1
    29    21    23    1
    30    21    24    1
    31    14    15   ar
    32    15    16   ar
    33     7     2    1
    34    16    11   ar
    35    28    26    1
    36    34    29   ar
    37    19    20    1
@<TRIPOS>MOLECULE
*****
 34 37 0 0 0
SMALL
GASTEIGER

@<TRIPOS>ATOM
      1 C         142.6321  144.5116  162.7432 C.3     1  UNL1        0.0206
      2 C         141.4379  143.7677  163.2633 C.3     1  UNL1        0.0956
      3 C         141.3873  143.3414  164.7006 C.3     1  UNL1        0.0900
      4 N         140.1932  142.5975  165.2207 N.3     1  UNL1       -0.2700
      5 C         139.0495  142.2798  164.3036 C.3     1  UNL1        0.0915
      6 C         139.1001  142.7061  162.8663 C.3     1  UNL1        0.1131
      7 N         140.2943  143.4500  162.3462 N.3     1  UNL1       -0.1541
      8 S         140.3448  143.8762  160.9089 S.O2    1  UNL1        0.0633
      9 O         139.5956  145.1290  161.2541 O.2     1  UNL1       -0.1528
     10 O         141.0940  142.6235  160.5636 O.2     1  UNL1       -0.1528
     11 C         140.3953  144.3025  159.4716 C.ar    1  UNL1        0.1222
     12 C         139.5484  143.6014  158.4512 C.ar    1  UNL1        0.0197
     13 C         139.5989  144.0278  157.0139 C.ar    1  UNL1       -0.0004
     14 C         140.4963  145.1551  156.5971 C.ar    1  UNL1        0.0099
     15 C         141.3433  145.8561  157.6175 C.ar    1  UNL1       -0.0004
     16 C         141.2928  145.4298  159.0547 C.ar    1  UNL1        0.0197
     17 C         140.5468  145.5813  155.1598 C.3     1  UNL1        0.1945
     18 C         140.5973  146.0076  153.7225 C.3     1  UNL1        0.0428
     19 O         142.0401  145.4398  155.1703 O.3     1  UNL1       -0.3751
     20 H         142.3312  145.1494  156.0489 H       1  UNL1        0.2110
     21 C         139.0536  145.7229  155.1494 C.3     1  UNL1        0.4230
     22 F         137.5603  145.8645  155.1389 F       1  UNL1       -0.1673
     23 F         138.7892  146.8509  156.1020 F       1  UNL1       -0.1673
     24 F         138.9536  144.5955  154.1649 F       1  UNL1       -0.1673
     25 C         140.1426  142.1713  166.6580 C.3     1  UNL1        0.0762
     26 C         140.9940  141.0311  167.1325 C.3     1  UNL1        0.0337
     27 C         142.0994  140.2903  167.8249 C.3     1  UNL1        0.0058
     28 C         142.0210  141.7848  167.9245 C.3     1  UNL1        0.0058
     29 C         140.2627  139.8814  166.5054 C.ar    1  UNL1       -0.0184
     30 C         140.9250  139.0655  165.4350 C.ar    1  UNL1        0.0164
     31 C         140.1938  137.9158  164.8078 C.ar    1  UNL1        0.0986
     32 N         138.8002  137.5819  165.2511 N.ar    1  UNL1       -0.2423
     33 C         138.1379  138.3977  166.3215 C.ar    1  UNL1        0.0986
     34 C         138.8692  139.5475  166.9487 C.ar    1  UNL1        0.0164
@<TRIPOS>BOND
     1     2     1    1
     2     2     3    1
     3     3     4    1
     4     4    25    1
     5    25    26    1
     6    26    29    1
     7    29    30   ar
     8    30    31   ar
     9    31    32   ar
    10    32    33   ar
    11    33    34   ar
    12    26    27    1
    13    27    28    1
    14     4     5    1
    15     5     6    1
    16     6     7    1
    17     7     8    1
    18     8     9    2
    19     8    10    2
    20     8    11    1
    21    11    12   ar
    22    12    13   ar
    23    13    14   ar
    24    14    17    1
    25    17    18    1
    26    17    19    1
    27    17    21    1
    28    21    22    1
    29    21    23    1
    30    21    24    1
    31    14    15   ar
    32    15    16   ar
    33     7     2    1
    34    16    11   ar
    35    28    26    1
    36    34    29   ar
    37    19    20    1
