@<TRIPOS>MOLECULE
*****
 34 38 0 0 0
SMALL
GASTEIGER

@<TRIPOS>ATOM
      1 C         142.8537  140.2483  165.1658 C.3     1  UNL1        0.1531
      2 C         141.9530  139.4818  164.2432 C.3     1  UNL1        0.1067
      3 N         142.2829  139.3839  162.7832 N.3     1  UNL1       -0.2665
      4 C         141.3821  138.6175  161.8605 C.3     1  UNL1        0.0940
      5 C         141.7120  138.5196  160.4005 C.3     1  UNL1        0.1107
      6 N         142.9425  139.1881  159.8632 N.am    1  UNL1       -0.2763
      7 C         143.2723  139.0902  158.4031 C.2     1  UNL1        0.2318
      8 O         144.5029  139.7588  157.8657 O.2     1  UNL1       -0.2744
      9 C         143.8432  139.9546  160.7858 C.3     1  UNL1        0.1119
     10 C         143.5134  140.0525  162.2458 C.3     1  UNL1        0.1075
     11 C         144.4141  140.8189  163.1684 C.3     1  UNL1        0.1601
     12 O         144.0843  140.9168  164.6284 O.3     1  UNL1       -0.3489
     13 C         141.5162  142.7095  166.2398 C.3     1  UNL1        0.0316
     14 C         141.8552  141.5768  167.1628 C.ar    1  UNL1       -0.0117
     15 C         142.5239  140.3462  166.6259 C.ar    1  UNL1        0.0027
     16 C         142.8629  139.2134  167.5489 C.ar    1  UNL1        0.0001
     17 C         142.5331  139.3113  169.0089 C.ar    1  UNL1        0.0301
     18 C         141.8643  140.5419  169.5459 C.ar    1  UNL1        0.1493
     19 F         141.5346  140.6398  171.0059 F       1  UNL1       -0.2035
     20 C         141.5254  141.6747  168.6229 C.ar    1  UNL1        0.0916
     21 C         140.8566  142.9053  169.1598 C.1     1  UNL1        0.1024
     22 N         140.1879  144.1359  169.6968 N.1     1  UNL1       -0.1908
     23 C         142.3716  138.3238  157.4805 C.3     1  UNL1        0.1309
     24 C         142.7556  136.9450  157.0317 C.ar    1  UNL1        0.0683
     25 C         142.8560  136.6336  155.5678 C.ar    1  UNL1        0.0168
     26 C         143.2400  135.2548  155.1189 C.ar    1  UNL1        0.0221
     27 C         143.5237  134.1874  156.1340 C.ar    1  UNL1        0.1053
     28 C         143.4234  134.4989  157.5978 C.ar    1  UNL1        0.1176
     29 N         143.0393  135.8777  158.0467 N.ar    1  UNL1       -0.2461
     30 N         143.9077  132.8087  155.6852 N.ar    1  UNL1       -0.1871
     31 C         144.8944  131.9040  156.3619 C.ar    1  UNL1        0.2259
     32 N         144.9690  130.6286  155.5758 N.ar    1  UNL1       -0.1045
     33 N         144.0284  130.7451  154.4131 N.ar    1  UNL1       -0.0222
     34 N         143.3725  132.0924  154.4807 N.ar    1  UNL1       -0.0384
@<TRIPOS>BOND
     1    13    14    1
     2    14    15   ar
     3     1    15    1
     4     1     2    1
     5     2     3    1
     6     3     4    1
     7     4     5    1
     8     5     6    1
     9     6     7   am
    10     7     8    2
    11     7    23    1
    12    23    24    1
    13    24    25   ar
    14    25    26   ar
    15    26    27   ar
    16    27    30    1
    17    30    31   ar
    18    31    32   ar
    19    32    33   ar
    20    33    34   ar
    21    27    28   ar
    22    28    29   ar
    23     6     9    1
    24    10     9    1
    25    10    11    1
    26    11    12    1
    27    15    16   ar
    28    16    17   ar
    29    17    18   ar
    30    18    19    1
    31    18    20   ar
    32    20    21    1
    33    21    22    3
    34    20    14   ar
    35    12     1    1
    36    10     3    1
    37    29    24   ar
    38    34    30   ar
@<TRIPOS>MOLECULE
*****
 34 38 0 0 0
SMALL
GASTEIGER

@<TRIPOS>ATOM
      1 C         142.2911  140.7480  165.7372 C.3     1  UNL1        0.1531
      2 C         142.4428  141.8399  164.7200 C.3     1  UNL1        0.1067
      3 N         142.7437  141.4972  163.2911 N.3     1  UNL1       -0.2665
      4 C         142.8954  142.5891  162.2738 C.3     1  UNL1        0.0940
      5 C         143.1963  142.2464  160.8449 C.3     1  UNL1        0.1107
      6 N         143.3454  140.8118  160.4331 N.am    1  UNL1       -0.2763
      7 C         143.6463  140.4691  159.0040 C.2     1  UNL1        0.2318
      8 O         143.7954  139.0344  158.5922 O.2     1  UNL1       -0.2744
      9 C         143.1937  139.7199  161.4502 C.3     1  UNL1        0.1119
     10 C         142.8928  140.0625  162.8793 C.3     1  UNL1        0.1075
     11 C         142.7411  138.9706  163.8964 C.3     1  UNL1        0.1601
     12 O         142.4403  139.3134  165.3254 O.3     1  UNL1       -0.3489
     13 C         139.7693  139.7506  167.0200 C.3     1  UNL1        0.0316
     14 C         140.7293  140.5920  167.8076 C.ar    1  UNL1       -0.0117
     15 C         141.9902  141.0907  167.1663 C.ar    1  UNL1        0.0027
     16 C         142.9503  141.9321  167.9538 C.ar    1  UNL1        0.0001
     17 C         142.6495  142.2748  169.3828 C.ar    1  UNL1        0.0301
     18 C         141.3885  141.7761  170.0243 C.ar    1  UNL1        0.1493
     19 F         141.0877  142.1188  171.4533 F       1  UNL1       -0.2035
     20 C         140.4285  140.9347  169.2367 C.ar    1  UNL1        0.0916
     21 C         139.1676  140.4360  169.8781 C.1     1  UNL1        0.1024
     22 N         137.9067  139.9373  170.5194 N.1     1  UNL1       -0.1908
     23 C         143.7980  141.5610  157.9868 C.3     1  UNL1        0.1309
     24 C         145.0830  141.7043  157.2265 C.ar    1  UNL1        0.0683
     25 C         145.3159  140.8915  155.9874 C.ar    1  UNL1        0.0168
     26 C         146.6009  141.0349  155.2270 C.ar    1  UNL1        0.0221
     27 C         147.6530  141.9910  155.7056 C.ar    1  UNL1        0.1053
     28 C         147.4200  142.8037  156.9446 C.ar    1  UNL1        0.1176
     29 N         146.1350  142.6604  157.7050 N.ar    1  UNL1       -0.2461
     30 N         148.9379  142.1343  154.9452 N.ar    1  UNL1       -0.1871
     31 C         149.0870  142.7022  153.5648 C.ar    1  UNL1        0.2259
     32 N         150.5407  142.6538  153.1981 N.ar    1  UNL1       -0.1045
     33 N         151.2901  142.0560  154.3519 N.ar    1  UNL1       -0.0222
     34 N         150.2996  141.7350  155.4316 N.ar    1  UNL1       -0.0384
@<TRIPOS>BOND
     1    13    14    1
     2    14    15   ar
     3     1    15    1
     4     1     2    1
     5     2     3    1
     6     3     4    1
     7     4     5    1
     8     5     6    1
     9     6     7   am
    10     7     8    2
    11     7    23    1
    12    23    24    1
    13    24    25   ar
    14    25    26   ar
    15    26    27   ar
    16    27    30    1
    17    30    31   ar
    18    31    32   ar
    19    32    33   ar
    20    33    34   ar
    21    27    28   ar
    22    28    29   ar
    23     6     9    1
    24    10     9    1
    25    10    11    1
    26    11    12    1
    27    15    16   ar
    28    16    17   ar
    29    17    18   ar
    30    18    19    1
    31    18    20   ar
    32    20    21    1
    33    21    22    3
    34    20    14   ar
    35    12     1    1
    36    10     3    1
    37    29    24   ar
    38    34    30   ar
@<TRIPOS>MOLECULE
*****
 34 38 0 0 0
SMALL
GASTEIGER

@<TRIPOS>ATOM
      1 C         140.3960  138.8331  158.1028 C.3     1  UNL1        0.1531
      2 C         139.8707  138.3656  159.4278 C.3     1  UNL1        0.1067
      3 N         140.7331  138.4585  160.6515 N.3     1  UNL1       -0.2665
      4 C         140.2079  137.9909  161.9765 C.3     1  UNL1        0.0940
      5 C         141.0703  138.0838  163.2002 C.3     1  UNL1        0.1107
      6 N         142.4581  138.6441  163.0990 N.am    1  UNL1       -0.2763
      7 C         143.3205  138.7370  164.3228 C.2     1  UNL1        0.2318
      8 O         144.7083  139.2973  164.2216 O.2     1  UNL1       -0.2744
      9 C         142.9833  139.1116  161.7741 C.3     1  UNL1        0.1119
     10 C         142.1209  139.0188  160.5503 C.3     1  UNL1        0.1075
     11 C         142.6461  139.4863  159.2253 C.3     1  UNL1        0.1601
     12 O         141.7837  139.3935  158.0016 O.3     1  UNL1       -0.3489
     13 C         138.8714  141.2372  157.1562 C.3     1  UNL1        0.0316
     14 C         138.7712  139.9423  156.4058 C.ar    1  UNL1       -0.0117
     15 C         139.5335  138.7403  156.8790 C.ar    1  UNL1        0.0027
     16 C         139.4333  137.4454  156.1286 C.ar    1  UNL1        0.0001
     17 C         138.5709  137.3525  154.9049 C.ar    1  UNL1        0.0301
     18 C         137.8086  138.5546  154.4315 C.ar    1  UNL1        0.1493
     19 F         136.9462  138.4617  153.2078 F       1  UNL1       -0.2035
     20 C         137.9088  139.8495  155.1820 C.ar    1  UNL1        0.0916
     21 C         137.1465  141.0515  154.7087 C.1     1  UNL1        0.1024
     22 N         136.3843  142.2536  154.2354 N.1     1  UNL1       -0.1908
     23 C         142.7953  138.2695  165.6477 C.3     1  UNL1        0.1309
     24 C         142.1900  139.2538  166.6041 C.ar    1  UNL1        0.0683
     25 C         142.7266  139.3703  168.0001 C.ar    1  UNL1        0.0168
     26 C         142.1214  140.3547  168.9565 C.ar    1  UNL1        0.0221
     27 C         140.9796  141.2225  168.5170 C.ar    1  UNL1        0.1053
     28 C         140.4430  141.1060  167.1212 C.ar    1  UNL1        0.1176
     29 N         141.0482  140.1216  166.1647 N.ar    1  UNL1       -0.2461
     30 N         140.3743  142.2068  169.4734 N.ar    1  UNL1       -0.1871
     31 C         140.5917  143.6910  169.4663 C.ar    1  UNL1        0.2259
     32 N         139.7971  144.2813  170.5934 N.ar    1  UNL1       -0.1045
     33 N         139.0886  143.1619  171.2971 N.ar    1  UNL1       -0.0222
     34 N         139.4454  141.8798  170.6049 N.ar    1  UNL1       -0.0384
@<TRIPOS>BOND
     1    13    14    1
     2    14    15   ar
     3     1    15    1
     4     1     2    1
     5     2     3    1
     6     3     4    1
     7     4     5    1
     8     5     6    1
     9     6     7   am
    10     7     8    2
    11     7    23    1
    12    23    24    1
    13    24    25   ar
    14    25    26   ar
    15    26    27   ar
    16    27    30    1
    17    30    31   ar
    18    31    32   ar
    19    32    33   ar
    20    33    34   ar
    21    27    28   ar
    22    28    29   ar
    23     6     9    1
    24    10     9    1
    25    10    11    1
    26    11    12    1
    27    15    16   ar
    28    16    17   ar
    29    17    18   ar
    30    18    19    1
    31    18    20   ar
    32    20    21    1
    33    21    22    3
    34    20    14   ar
    35    12     1    1
    36    10     3    1
    37    29    24   ar
    38    34    30   ar
@<TRIPOS>MOLECULE
*****
 34 38 0 0 0
SMALL
GASTEIGER

@<TRIPOS>ATOM
      1 C         138.4478  141.0455  157.6117 C.3     1  UNL1        0.1531
      2 C         137.7082  140.9735  158.9147 C.3     1  UNL1        0.1067
      3 N         138.2430  140.1316  160.0350 N.3     1  UNL1       -0.2665
      4 C         137.5034  140.0595  161.3381 C.3     1  UNL1        0.0940
      5 C         138.0381  139.2176  162.4584 C.3     1  UNL1        0.1107
      6 N         139.3125  138.4477  162.2758 N.am    1  UNL1       -0.2763
      7 C         139.8473  137.6058  163.3962 C.2     1  UNL1        0.2318
      8 O         141.1216  136.8360  163.2136 O.2     1  UNL1       -0.2744
      9 C         140.0521  138.5198  160.9728 C.3     1  UNL1        0.1119
     10 C         139.5174  139.3617  159.8524 C.3     1  UNL1        0.1075
     11 C         140.2570  139.4338  158.5494 C.3     1  UNL1        0.1601
     12 O         139.7222  140.2757  157.4291 O.3     1  UNL1       -0.3489
     13 C         139.2849  143.9154  157.3605 C.3     1  UNL1        0.0316
     14 C         138.3316  143.3224  156.3657 C.ar    1  UNL1       -0.0117
     15 C         137.9131  141.8875  156.4913 C.ar    1  UNL1        0.0027
     16 C         136.9598  141.2944  155.4965 C.ar    1  UNL1        0.0001
     17 C         136.4251  142.1362  154.3762 C.ar    1  UNL1        0.0301
     18 C         136.8436  143.5712  154.2505 C.ar    1  UNL1        0.1493
     19 F         136.3089  144.4131  153.1301 F       1  UNL1       -0.2035
     20 C         137.7969  144.1643  155.2453 C.ar    1  UNL1        0.0916
     21 C         138.2154  145.5992  155.1197 C.1     1  UNL1        0.1024
     22 N         138.6339  147.0341  154.9941 N.1     1  UNL1       -0.1908
     23 C         139.1077  137.5338  164.6992 C.3     1  UNL1        0.1309
     24 C         139.4666  138.4663  165.8178 C.ar    1  UNL1        0.0683
     25 C         138.4295  138.8610  166.8272 C.ar    1  UNL1        0.0168
     26 C         138.7884  139.7936  167.9459 C.ar    1  UNL1        0.0221
     27 C         140.1844  140.3315  168.0552 C.ar    1  UNL1        0.1053
     28 C         141.2214  139.9370  167.0458 C.ar    1  UNL1        0.1176
     29 N         140.8625  139.0043  165.9271 N.ar    1  UNL1       -0.2461
     30 N         140.5433  141.2641  169.1738 N.ar    1  UNL1       -0.1871
     31 C         140.8811  140.8656  170.5799 C.ar    1  UNL1        0.2259
     32 N         141.1741  142.1143  171.3580 N.ar    1  UNL1       -0.1045
     33 N         141.0172  143.2845  170.4327 N.ar    1  UNL1       -0.0222
     34 N         140.6274  142.7591  169.0829 N.ar    1  UNL1       -0.0384
@<TRIPOS>BOND
     1    13    14    1
     2    14    15   ar
     3     1    15    1
     4     1     2    1
     5     2     3    1
     6     3     4    1
     7     4     5    1
     8     5     6    1
     9     6     7   am
    10     7     8    2
    11     7    23    1
    12    23    24    1
    13    24    25   ar
    14    25    26   ar
    15    26    27   ar
    16    27    30    1
    17    30    31   ar
    18    31    32   ar
    19    32    33   ar
    20    33    34   ar
    21    27    28   ar
    22    28    29   ar
    23     6     9    1
    24    10     9    1
    25    10    11    1
    26    11    12    1
    27    15    16   ar
    28    16    17   ar
    29    17    18   ar
    30    18    19    1
    31    18    20   ar
    32    20    21    1
    33    21    22    3
    34    20    14   ar
    35    12     1    1
    36    10     3    1
    37    29    24   ar
    38    34    30   ar
@<TRIPOS>MOLECULE
*****
 34 38 0 0 0
SMALL
GASTEIGER

@<TRIPOS>ATOM
      1 C         142.5840  140.6414  164.2968 C.3     1  UNL1        0.1531
      2 C         141.6031  139.9956  163.3636 C.3     1  UNL1        0.1067
      3 N         141.9689  139.7760  161.9256 N.3     1  UNL1       -0.2665
      4 C         140.9880  139.1302  160.9924 C.3     1  UNL1        0.0940
      5 C         141.3539  138.9106  159.5543 C.3     1  UNL1        0.1107
      6 N         142.7005  139.3368  159.0495 N.am    1  UNL1       -0.2763
      7 C         143.0663  139.1171  157.6114 C.2     1  UNL1        0.2318
      8 O         144.4130  139.5433  157.1066 O.2     1  UNL1       -0.2744
      9 C         143.6814  139.9825  159.9827 C.3     1  UNL1        0.1119
     10 C         143.3156  140.2022  161.4208 C.3     1  UNL1        0.1075
     11 C         144.2965  140.8479  162.3539 C.3     1  UNL1        0.1601
     12 O         143.9307  141.0675  163.7919 O.3     1  UNL1       -0.3489
     13 C         143.3679  138.6193  166.3697 C.3     1  UNL1        0.0316
     14 C         142.6102  139.8500  166.7713 C.ar    1  UNL1       -0.0117
     15 C         142.2182  140.8610  165.7349 C.ar    1  UNL1        0.0027
     16 C         141.4605  142.0917  166.1365 C.ar    1  UNL1        0.0001
     17 C         141.0948  142.3114  167.5745 C.ar    1  UNL1        0.0301
     18 C         141.4867  141.3003  168.6110 C.ar    1  UNL1        0.1493
     19 F         141.1209  141.5200  170.0490 F       1  UNL1       -0.2035
     20 C         142.2444  140.0696  168.2094 C.ar    1  UNL1        0.0916
     21 C         142.6363  139.0586  169.2458 C.1     1  UNL1        0.1024
     22 N         143.0282  138.0476  170.2822 N.1     1  UNL1       -0.1908
     23 C         142.0854  138.4714  156.6782 C.3     1  UNL1        0.1309
     24 C         142.1185  136.9870  156.4652 C.ar    1  UNL1        0.0683
     25 C         141.1865  136.3501  155.4773 C.ar    1  UNL1        0.0168
     26 C         141.2196  134.8657  155.2643 C.ar    1  UNL1        0.0221
     27 C         142.1847  134.0181  156.0390 C.ar    1  UNL1        0.1053
     28 C         143.1166  134.6550  157.0269 C.ar    1  UNL1        0.1176
     29 N         143.0836  136.1394  157.2400 N.ar    1  UNL1       -0.2461
     30 N         142.2178  132.5338  155.8260 N.ar    1  UNL1       -0.1871
     31 C         142.8273  131.5234  156.7522 C.ar    1  UNL1        0.2259
     32 N         142.6333  130.1642  156.1479 N.ar    1  UNL1       -0.1045
     33 N         141.9040  130.3346  154.8482 N.ar    1  UNL1       -0.0222
     34 N         141.6471  131.7989  154.6493 N.ar    1  UNL1       -0.0384
@<TRIPOS>BOND
     1    13    14    1
     2    14    15   ar
     3     1    15    1
     4     1     2    1
     5     2     3    1
     6     3     4    1
     7     4     5    1
     8     5     6    1
     9     6     7   am
    10     7     8    2
    11     7    23    1
    12    23    24    1
    13    24    25   ar
    14    25    26   ar
    15    26    27   ar
    16    27    30    1
    17    30    31   ar
    18    31    32   ar
    19    32    33   ar
    20    33    34   ar
    21    27    28   ar
    22    28    29   ar
    23     6     9    1
    24    10     9    1
    25    10    11    1
    26    11    12    1
    27    15    16   ar
    28    16    17   ar
    29    17    18   ar
    30    18    19    1
    31    18    20   ar
    32    20    21    1
    33    21    22    3
    34    20    14   ar
    35    12     1    1
    36    10     3    1
    37    29    24   ar
    38    34    30   ar
@<TRIPOS>MOLECULE
*****
 34 38 0 0 0
SMALL
GASTEIGER

@<TRIPOS>ATOM
      1 C         139.6845  140.7836  163.1090 C.3     1  UNL1        0.1531
      2 C         140.9083  140.4010  162.3306 C.3     1  UNL1        0.1067
      3 N         140.7691  139.7171  161.0028 N.3     1  UNL1       -0.2665
      4 C         141.9929  139.3345  160.2243 C.3     1  UNL1        0.0940
      5 C         141.8537  138.6507  158.8966 C.3     1  UNL1        0.1107
      6 N         140.4908  138.3494  158.3473 N.am    1  UNL1       -0.2763
      7 C         140.3517  137.6656  157.0194 C.2     1  UNL1        0.2318
      8 O         138.9888  137.3644  156.4701 O.2     1  UNL1       -0.2744
      9 C         139.2671  138.7321  159.1257 C.3     1  UNL1        0.1119
     10 C         139.4062  139.4159  160.4535 C.3     1  UNL1        0.1075
     11 C         138.1824  139.7985  161.2320 C.3     1  UNL1        0.1601
     12 O         138.3216  140.4824  162.5597 O.3     1  UNL1       -0.3489
     13 C         139.6569  139.1696  165.6378 C.3     1  UNL1        0.0316
     14 C         139.8098  140.6605  165.7012 C.ar    1  UNL1       -0.0117
     15 C         139.8236  141.4674  164.4369 C.ar    1  UNL1        0.0027
     16 C         139.9765  142.9583  164.5003 C.ar    1  UNL1        0.0001
     17 C         140.1157  143.6422  165.8280 C.ar    1  UNL1        0.0301
     18 C         140.1019  142.8352  167.0924 C.ar    1  UNL1        0.1493
     19 F         140.2410  143.5191  168.4201 F       1  UNL1       -0.2035
     20 C         139.9490  141.3444  167.0290 C.ar    1  UNL1        0.0916
     21 C         139.9352  140.5374  168.2933 C.1     1  UNL1        0.1024
     22 N         139.9214  139.7304  169.5577 N.1     1  UNL1       -0.1908
     23 C         141.5754  137.2830  156.2410 C.3     1  UNL1        0.1309
     24 C         142.0259  135.8526  156.2071 C.ar    1  UNL1        0.0683
     25 C         143.2031  135.4174  157.0287 C.ar    1  UNL1        0.0168
     26 C         143.6536  133.9870  156.9948 C.ar    1  UNL1        0.0221
     27 C         142.9269  132.9919  156.1394 C.ar    1  UNL1        0.1053
     28 C         141.7498  133.4271  155.3179 C.ar    1  UNL1        0.1176
     29 N         141.2992  134.8575  155.3517 N.ar    1  UNL1       -0.2461
     30 N         143.3774  131.5616  156.1055 N.ar    1  UNL1       -0.1871
     31 C         144.7997  131.0851  156.0972 C.ar    1  UNL1        0.2259
     32 N         144.7860  129.5855  156.0605 N.ar    1  UNL1       -0.1045
     33 N         143.3552  129.1353  156.0462 N.ar    1  UNL1       -0.0222
     34 N         142.4846  130.3565  156.0740 N.ar    1  UNL1       -0.0384
@<TRIPOS>BOND
     1    13    14    1
     2    14    15   ar
     3     1    15    1
     4     1     2    1
     5     2     3    1
     6     3     4    1
     7     4     5    1
     8     5     6    1
     9     6     7   am
    10     7     8    2
    11     7    23    1
    12    23    24    1
    13    24    25   ar
    14    25    26   ar
    15    26    27   ar
    16    27    30    1
    17    30    31   ar
    18    31    32   ar
    19    32    33   ar
    20    33    34   ar
    21    27    28   ar
    22    28    29   ar
    23     6     9    1
    24    10     9    1
    25    10    11    1
    26    11    12    1
    27    15    16   ar
    28    16    17   ar
    29    17    18   ar
    30    18    19    1
    31    18    20   ar
    32    20    21    1
    33    21    22    3
    34    20    14   ar
    35    12     1    1
    36    10     3    1
    37    29    24   ar
    38    34    30   ar
@<TRIPOS>MOLECULE
*****
 34 38 0 0 0
SMALL
GASTEIGER

@<TRIPOS>ATOM
      1 C         141.2250  139.3155  164.6798 C.3     1  UNL1        0.1531
      2 C         141.4130  140.5053  163.7859 C.3     1  UNL1        0.1067
      3 N         141.8281  140.3119  162.3575 N.3     1  UNL1       -0.2665
      4 C         142.0160  141.5017  161.4635 C.3     1  UNL1        0.0940
      5 C         142.4311  141.3084  160.0351 C.3     1  UNL1        0.1107
      6 N         142.6582  139.9253  159.5007 N.am    1  UNL1       -0.2763
      7 C         143.0733  139.7321  158.0722 C.2     1  UNL1        0.2318
      8 O         143.3004  138.3490  157.5378 O.2     1  UNL1       -0.2744
      9 C         142.4703  138.7356  160.3946 C.3     1  UNL1        0.1119
     10 C         142.0552  138.9289  161.8231 C.3     1  UNL1        0.1075
     11 C         141.8672  137.7392  162.7170 C.3     1  UNL1        0.1601
     12 O         141.4521  137.9325  164.1454 O.3     1  UNL1       -0.3489
     13 C         143.2849  139.2660  166.8604 C.3     1  UNL1        0.0316
     14 C         141.8398  139.4841  167.1985 C.ar    1  UNL1       -0.0117
     15 C         140.8099  139.5088  166.1083 C.ar    1  UNL1        0.0027
     16 C         139.3649  139.7268  166.4465 C.ar    1  UNL1        0.0001
     17 C         138.9498  139.9201  167.8748 C.ar    1  UNL1        0.0301
     18 C         139.9797  139.8954  168.9651 C.ar    1  UNL1        0.1493
     19 F         139.5646  140.0886  170.3935 F       1  UNL1       -0.2035
     20 C         141.4247  139.6773  168.6270 C.ar    1  UNL1        0.0916
     21 C         142.4547  139.6526  169.7172 C.1     1  UNL1        0.1024
     22 N         143.4846  139.6278  170.8074 N.1     1  UNL1       -0.1908
     23 C         143.2613  140.9218  157.1783 C.3     1  UNL1        0.1309
     24 C         144.6105  141.2129  156.5911 C.ar    1  UNL1        0.0683
     25 C         145.0233  140.5654  155.3025 C.ar    1  UNL1        0.0168
     26 C         146.3725  140.8565  154.7153 C.ar    1  UNL1        0.0221
     27 C         147.3089  141.7952  155.4166 C.ar    1  UNL1        0.1053
     28 C         146.8962  142.4428  156.7051 C.ar    1  UNL1        0.1176
     29 N         145.5470  142.1517  157.2924 N.ar    1  UNL1       -0.2461
     30 N         148.6581  142.0864  154.8294 N.ar    1  UNL1       -0.1871
     31 C         149.9607  141.4904  155.2746 C.ar    1  UNL1        0.2259
     32 N         151.0494  142.0603  154.4142 N.ar    1  UNL1       -0.1045
     33 N         150.4195  143.0085  153.4373 N.ar    1  UNL1       -0.0222
     34 N         148.9417  143.0246  153.6939 N.ar    1  UNL1       -0.0384
@<TRIPOS>BOND
     1    13    14    1
     2    14    15   ar
     3     1    15    1
     4     1     2    1
     5     2     3    1
     6     3     4    1
     7     4     5    1
     8     5     6    1
     9     6     7   am
    10     7     8    2
    11     7    23    1
    12    23    24    1
    13    24    25   ar
    14    25    26   ar
    15    26    27   ar
    16    27    30    1
    17    30    31   ar
    18    31    32   ar
    19    32    33   ar
    20    33    34   ar
    21    27    28   ar
    22    28    29   ar
    23     6     9    1
    24    10     9    1
    25    10    11    1
    26    11    12    1
    27    15    16   ar
    28    16    17   ar
    29    17    18   ar
    30    18    19    1
    31    18    20   ar
    32    20    21    1
    33    21    22    3
    34    20    14   ar
    35    12     1    1
    36    10     3    1
    37    29    24   ar
    38    34    30   ar
@<TRIPOS>MOLECULE
*****
 34 38 0 0 0
SMALL
GASTEIGER

@<TRIPOS>ATOM
      1 C         142.6005  140.2644  165.8835 C.3     1  UNL1        0.1531
      2 C         141.8698  139.2549  165.0486 C.3     1  UNL1        0.1067
      3 N         142.1856  139.1196  163.5885 N.3     1  UNL1       -0.2665
      4 C         141.4549  138.1101  162.7535 C.3     1  UNL1        0.0940
      5 C         141.7707  137.9748  161.2934 C.3     1  UNL1        0.1107
      6 N         142.8171  138.8489  160.6682 N.am    1  UNL1       -0.2763
      7 C         143.1329  138.7136  159.2081 C.2     1  UNL1        0.2318
      8 O         144.1794  139.5877  158.5829 O.2     1  UNL1       -0.2744
      9 C         143.5478  139.8584  161.5031 C.3     1  UNL1        0.1119
     10 C         143.2320  139.9937  162.9633 C.3     1  UNL1        0.1075
     11 C         143.9627  141.0032  163.7982 C.3     1  UNL1        0.1601
     12 O         143.6469  141.1385  165.2583 O.3     1  UNL1       -0.3489
     13 C         141.2536  142.7434  166.9035 C.3     1  UNL1        0.0316
     14 C         141.6113  141.6392  167.8536 C.ar    1  UNL1       -0.0117
     15 C         142.2847  140.3997  167.3437 C.ar    1  UNL1        0.0027
     16 C         142.6424  139.2955  168.2939 C.ar    1  UNL1        0.0001
     17 C         142.3267  139.4308  169.7540 C.ar    1  UNL1        0.0301
     18 C         141.6532  140.6704  170.2640 C.ar    1  UNL1        0.1493
     19 F         141.3375  140.8057  171.7241 F       1  UNL1       -0.2035
     20 C         141.2955  141.7746  169.3138 C.ar    1  UNL1        0.0916
     21 C         140.6221  143.0141  169.8238 C.1     1  UNL1        0.1024
     22 N         139.9487  144.2536  170.3337 N.1     1  UNL1       -0.1908
     23 C         142.4022  137.7041  158.3732 C.3     1  UNL1        0.1309
     24 C         141.2410  138.1315  157.5254 C.ar    1  UNL1        0.0683
     25 C         140.7123  139.5316  157.6283 C.ar    1  UNL1        0.0168
     26 C         139.5510  139.9589  156.7805 C.ar    1  UNL1        0.0221
     27 C         138.9184  138.9864  155.8298 C.ar    1  UNL1        0.1053
     28 C         139.4470  137.5864  155.7268 C.ar    1  UNL1        0.1176
     29 N         140.6084  137.1590  156.5746 N.ar    1  UNL1       -0.2461
     30 N         137.7572  139.4138  154.9820 N.ar    1  UNL1       -0.1871
     31 C         137.7163  140.6138  154.0829 C.ar    1  UNL1        0.2259
     32 N         136.3667  140.6579  153.4296 N.ar    1  UNL1       -0.1045
     33 N         135.5734  139.4851  153.9250 N.ar    1  UNL1       -0.0222
     34 N         136.4328  138.7162  154.8844 N.ar    1  UNL1       -0.0384
@<TRIPOS>BOND
     1    13    14    1
     2    14    15   ar
     3     1    15    1
     4     1     2    1
     5     2     3    1
     6     3     4    1
     7     4     5    1
     8     5     6    1
     9     6     7   am
    10     7     8    2
    11     7    23    1
    12    23    24    1
    13    24    25   ar
    14    25    26   ar
    15    26    27   ar
    16    27    30    1
    17    30    31   ar
    18    31    32   ar
    19    32    33   ar
    20    33    34   ar
    21    27    28   ar
    22    28    29   ar
    23     6     9    1
    24    10     9    1
    25    10    11    1
    26    11    12    1
    27    15    16   ar
    28    16    17   ar
    29    17    18   ar
    30    18    19    1
    31    18    20   ar
    32    20    21    1
    33    21    22    3
    34    20    14   ar
    35    12     1    1
    36    10     3    1
    37    29    24   ar
    38    34    30   ar
@<TRIPOS>MOLECULE
*****
 34 38 0 0 0
SMALL
GASTEIGER

@<TRIPOS>ATOM
      1 C         141.1332  138.8685  158.1258 C.3     1  UNL1        0.1531
      2 C         140.6287  138.3548  159.4416 C.3     1  UNL1        0.1067
      3 N         141.4663  138.5061  160.6767 N.3     1  UNL1       -0.2665
      4 C         140.9619  137.9923  161.9927 C.3     1  UNL1        0.0940
      5 C         141.7995  138.1436  163.2278 C.3     1  UNL1        0.1107
      6 N         143.1415  138.8087  163.1470 N.am    1  UNL1       -0.2763
      7 C         143.9791  138.9600  164.3822 C.2     1  UNL1        0.2318
      8 O         145.3212  139.6251  164.3015 O.2     1  UNL1       -0.2744
      9 C         143.6460  139.3225  161.8312 C.3     1  UNL1        0.1119
     10 C         142.8084  139.1712  160.5960 C.3     1  UNL1        0.1075
     11 C         143.3129  139.6850  159.2801 C.3     1  UNL1        0.1601
     12 O         142.4753  139.5336  158.0450 O.3     1  UNL1       -0.3489
     13 C         141.7280  136.6731  156.1697 C.3     1  UNL1        0.0316
     14 C         140.5930  137.6195  155.9126 C.ar    1  UNL1       -0.0117
     15 C         140.2956  138.7172  156.8906 C.ar    1  UNL1        0.0027
     16 C         139.1607  139.6637  156.6335 C.ar    1  UNL1        0.0001
     17 C         138.3231  139.5124  155.3984 C.ar    1  UNL1        0.0301
     18 C         138.6204  138.4146  154.4203 C.ar    1  UNL1        0.1493
     19 F         137.7829  138.2634  153.1852 F       1  UNL1       -0.2035
     20 C         139.7554  137.4682  154.6774 C.ar    1  UNL1        0.0916
     21 C         140.0528  136.3705  153.6994 C.1     1  UNL1        0.1024
     22 N         140.3502  135.2728  152.7214 N.1     1  UNL1       -0.1908
     23 C         143.4746  138.4463  165.6980 C.3     1  UNL1        0.1309
     24 C         142.7823  139.3756  166.6503 C.ar    1  UNL1        0.0683
     25 C         141.9202  140.4842  166.1231 C.ar    1  UNL1        0.0168
     26 C         141.2278  141.4135  167.0754 C.ar    1  UNL1        0.0221
     27 C         141.3974  141.2343  168.5550 C.ar    1  UNL1        0.1053
     28 C         142.2595  140.1258  169.0822 C.ar    1  UNL1        0.1176
     29 N         142.9519  139.1964  168.1299 N.ar    1  UNL1       -0.2461
     30 N         140.7051  142.1636  169.5073 N.ar    1  UNL1       -0.1871
     31 C         140.0413  141.7732  170.7945 C.ar    1  UNL1        0.2259
     32 N         139.4809  143.0149  171.4224 N.ar    1  UNL1       -0.1045
     33 N         139.7982  144.1728  170.5231 N.ar    1  UNL1       -0.0222
     34 N         140.5548  143.6467  169.3395 N.ar    1  UNL1       -0.0384
@<TRIPOS>BOND
     1    13    14    1
     2    14    15   ar
     3     1    15    1
     4     1     2    1
     5     2     3    1
     6     3     4    1
     7     4     5    1
     8     5     6    1
     9     6     7   am
    10     7     8    2
    11     7    23    1
    12    23    24    1
    13    24    25   ar
    14    25    26   ar
    15    26    27   ar
    16    27    30    1
    17    30    31   ar
    18    31    32   ar
    19    32    33   ar
    20    33    34   ar
    21    27    28   ar
    22    28    29   ar
    23     6     9    1
    24    10     9    1
    25    10    11    1
    26    11    12    1
    27    15    16   ar
    28    16    17   ar
    29    17    18   ar
    30    18    19    1
    31    18    20   ar
    32    20    21    1
    33    21    22    3
    34    20    14   ar
    35    12     1    1
    36    10     3    1
    37    29    24   ar
    38    34    30   ar
