@<TRIPOS>MOLECULE
*****
 39 41 0 0 0
SMALL
GASTEIGER

@<TRIPOS>ATOM
      1 C         139.0074  142.5948  161.7794 C.2     1  UNL1        0.2485
      2 O         138.0067  143.7118  161.7568 O.2     1  UNL1       -0.2726
      3 N         140.0021  142.4564  160.6652 N.am    1  UNL1       -0.2823
      4 H         140.6590  141.7232  160.6799 H       1  UNL1        0.1549
      5 C         140.1838  141.8674  167.2313 C.ar    1  UNL1        0.1217
      6 C         140.3445  143.1264  166.4319 C.ar    1  UNL1        0.0196
      7 C         139.9792  143.1428  164.9771 C.ar    1  UNL1       -0.0011
      8 C         139.4533  141.9003  164.3218 C.ar    1  UNL1        0.0022
      9 C         139.2927  140.6413  165.1212 C.ar    1  UNL1       -0.0029
     10 C         139.6579  140.6249  166.5759 C.ar    1  UNL1        0.0170
     11 C         138.7536  139.5790  164.2096 C.3     1  UNL1        0.1206
     12 N         138.5812  140.1815  162.8468 N.am    1  UNL1       -0.2655
     13 C         138.0667  139.4736  161.6284 C.2     1  UNL1        0.2269
     14 C         137.6703  138.0293  161.7116 C.3     1  UNL1        0.0949
     15 O         137.9486  140.2100  160.3270 O.2     1  UNL1       -0.2748
     16 C         139.0136  141.6161  162.9161 C.3     1  UNL1        0.1750
     17 S         140.5491  141.8509  168.6861 S.O2    1  UNL1        0.0603
     18 O         140.7409  140.3646  168.6211 O.2     1  UNL1       -0.1530
     19 O         140.3572  143.3372  168.7510 O.2     1  UNL1       -0.1530
     20 C         140.6558  140.6083  170.9652 C.3     1  UNL1        0.1102
     21 N         140.9143  141.8344  170.1408 N.3     1  UNL1       -0.1779
     22 H         141.9158  142.0200  170.1951 H       1  UNL1        0.1488
     23 C         139.9959  143.4351  159.5284 C.ar    1  UNL1        0.0503
     24 C         140.7115  144.7464  159.6638 C.ar    1  UNL1        0.0144
     25 C         140.7053  145.7251  158.5271 C.ar    1  UNL1       -0.0002
     26 C         139.9836  145.3925  157.2549 C.ar    1  UNL1        0.0182
     27 C         139.2680  144.0811  157.1195 C.ar    1  UNL1       -0.0002
     28 C         139.2742  143.1025  158.2563 C.ar    1  UNL1        0.0144
     29 C         139.9774  146.3711  156.1182 C.3     1  UNL1        0.2827
     30 O         139.3759  147.4109  157.0166 O.3     1  UNL1       -0.3692
     31 H         139.2501  147.0383  157.9033 H       1  UNL1        0.2112
     32 C         139.9712  147.3498  154.9815 C.3     1  UNL1        0.4311
     33 F         139.9650  148.3284  153.8447 F       1  UNL1       -0.1669
     34 F         138.4715  147.3658  155.0035 F       1  UNL1       -0.1669
     35 F         140.8498  147.4108  154.8868 F       1  UNL1       -0.1669
     36 C         140.5789  145.3314  155.2198 C.3     1  UNL1        0.4311
     37 F         141.1803  144.2916  154.3214 F       1  UNL1       -0.1669
     38 F         139.8568  145.1820  154.7289 F       1  UNL1       -0.1669
     39 F         141.9914  145.2031  155.7079 F       1  UNL1       -0.1669
@<TRIPOS>BOND
     1    20    21    1
     2    21    17    1
     3    17    18    2
     4    17    19    2
     5    17     5    1
     6     5     6   ar
     7     6     7   ar
     8     7     8   ar
     9     8     9   ar
    10     9    10   ar
    11     9    11    1
    12    11    12    1
    13    12    13   am
    14    13    14    1
    15    13    15    2
    16    12    16    1
    17    16     1    1
    18     1     2    2
    19     1     3   am
    20     3    23    1
    21    23    24   ar
    22    24    25   ar
    23    25    26   ar
    24    26    29    1
    25    29    30    1
    26    29    32    1
    27    32    33    1
    28    32    34    1
    29    32    35    1
    30    29    36    1
    31    36    37    1
    32    36    38    1
    33    36    39    1
    34    26    27   ar
    35    27    28   ar
    36    10     5   ar
    37    28    23   ar
    38    16     8    1
    39    21    22    1
    40     3     4    1
    41    30    31    1
@<TRIPOS>MOLECULE
*****
 39 41 0 0 0
SMALL
GASTEIGER

@<TRIPOS>ATOM
      1 C         140.5536  139.0464  161.5995 C.2     1  UNL1        0.2485
      2 O         139.9057  137.6953  161.5326 O.2     1  UNL1       -0.2726
      3 N         141.3765  139.5414  160.4472 N.am    1  UNL1       -0.2823
      4 H         141.8018  140.4282  160.4911 H       1  UNL1        0.1549
      5 C         142.0171  139.7569  166.9837 C.ar    1  UNL1        0.1217
      6 C         142.4714  138.6662  166.0597 C.ar    1  UNL1        0.0196
      7 C         141.9778  138.6287  164.6438 C.ar    1  UNL1       -0.0011
      8 C         141.0298  139.6819  164.1518 C.ar    1  UNL1        0.0022
      9 C         140.5755  140.7726  165.0758 C.ar    1  UNL1       -0.0029
     10 C         141.0691  140.8102  166.4918 C.ar    1  UNL1        0.0170
     11 C         139.6435  141.6675  164.3138 C.3     1  UNL1        0.1206
     12 N         139.5219  141.1298  162.9188 N.am    1  UNL1       -0.2655
     13 C         138.6896  141.7162  161.8172 C.2     1  UNL1        0.2269
     14 C         137.8799  142.9541  162.0666 C.3     1  UNL1        0.0949
     15 O         138.6669  141.0648  160.4662 O.2     1  UNL1       -0.2748
     16 C         140.3787  139.9026  162.8187 C.3     1  UNL1        0.1750
     17 S         142.5107  139.7944  168.3997 S.O2    1  UNL1        0.0603
     18 O         143.3471  138.5766  168.1404 O.2     1  UNL1       -0.1530
     19 O         141.6743  141.0123  168.6590 O.2     1  UNL1       -0.1530
     20 C         142.2800  140.6530  170.8409 C.3     1  UNL1        0.1102
     21 N         143.0043  139.8320  169.8157 N.3     1  UNL1       -0.1779
     22 H         143.0021  138.8697  170.1539 H       1  UNL1        0.1488
     23 C         141.5514  138.6853  159.2281 C.ar    1  UNL1        0.0503
     24 C         142.7243  137.7557  159.1263 C.ar    1  UNL1        0.0144
     25 C         142.8993  136.8996  157.9072 C.ar    1  UNL1       -0.0002
     26 C         141.9014  136.9729  156.7897 C.ar    1  UNL1        0.0182
     27 C         140.7285  137.9024  156.8914 C.ar    1  UNL1       -0.0002
     28 C         140.5535  138.7585  158.1106 C.ar    1  UNL1        0.0144
     29 C         142.0763  136.1167  155.5706 C.3     1  UNL1        0.2827
     30 O         140.6729  135.6101  155.7250 O.3     1  UNL1       -0.3692
     31 H         140.2638  136.0228  156.5016 H       1  UNL1        0.2112
     32 C         142.2512  135.2605  154.3514 C.3     1  UNL1        0.4311
     33 F         142.4261  134.4044  153.1322 F       1  UNL1       -0.1669
     34 F         142.2526  134.0331  155.2136 F       1  UNL1       -0.1669
     35 F         142.2630  135.9183  153.7583 F       1  UNL1       -0.1669
     36 C         143.4797  136.6233  155.4161 C.3     1  UNL1        0.4311
     37 F         144.8830  137.1300  155.2617 F       1  UNL1       -0.1669
     38 F         143.2704  137.4527  155.1860 F       1  UNL1       -0.1669
     39 F         144.3330  135.4333  155.7413 F       1  UNL1       -0.1669
@<TRIPOS>BOND
     1    20    21    1
     2    21    17    1
     3    17    18    2
     4    17    19    2
     5    17     5    1
     6     5     6   ar
     7     6     7   ar
     8     7     8   ar
     9     8     9   ar
    10     9    10   ar
    11     9    11    1
    12    11    12    1
    13    12    13   am
    14    13    14    1
    15    13    15    2
    16    12    16    1
    17    16     1    1
    18     1     2    2
    19     1     3   am
    20     3    23    1
    21    23    24   ar
    22    24    25   ar
    23    25    26   ar
    24    26    29    1
    25    29    30    1
    26    29    32    1
    27    32    33    1
    28    32    34    1
    29    32    35    1
    30    29    36    1
    31    36    37    1
    32    36    38    1
    33    36    39    1
    34    26    27   ar
    35    27    28   ar
    36    10     5   ar
    37    28    23   ar
    38    16     8    1
    39    21    22    1
    40     3     4    1
    41    30    31    1
@<TRIPOS>MOLECULE
*****
 39 41 0 0 0
SMALL
GASTEIGER

@<TRIPOS>ATOM
      1 C         141.6163  142.5447  162.7498 C.2     1  UNL1        0.2485
      2 O         140.8745  141.2638  162.9926 O.2     1  UNL1       -0.2726
      3 N         142.0974  143.3643  163.9103 N.am    1  UNL1       -0.2823
      4 H         142.5843  144.2050  163.7510 H       1  UNL1        0.1549
      5 C         144.4217  141.4809  157.9922 C.ar    1  UNL1        0.1217
      6 C         144.4622  140.6850  159.2630 C.ar    1  UNL1        0.0196
      7 C         143.6440  141.1156  160.4441 C.ar    1  UNL1       -0.0011
      8 C         142.7852  142.3421  160.3545 C.ar    1  UNL1        0.0022
      9 C         142.7447  143.1381  159.0838 C.ar    1  UNL1       -0.0029
     10 C         143.5630  142.7075  157.9027 C.ar    1  UNL1        0.0170
     11 C         141.8114  144.2940  159.2904 C.3     1  UNL1        0.1206
     12 N         141.2750  144.2125  160.6889 N.am    1  UNL1       -0.2655
     13 C         140.3068  145.1692  161.3191 C.2     1  UNL1        0.2269
     14 C         139.7876  146.3370  160.5337 C.3     1  UNL1        0.0949
     15 O         139.8578  144.9583  162.7346 O.2     1  UNL1       -0.2748
     16 C         141.8769  143.0061  161.3465 C.3     1  UNL1        0.1750
     17 S         145.2400  141.0503  156.8111 S.O2    1  UNL1        0.0603
     18 O         145.8929  142.4002  156.7713 O.2     1  UNL1       -0.1530
     19 O         144.5871  139.7005  156.8509 O.2     1  UNL1       -0.1530
     20 C         147.2040  141.4673  155.1623 C.3     1  UNL1        0.1102
     21 N         146.0582  140.6197  155.6300 N.3     1  UNL1       -0.1779
     22 H         146.4436  139.7031  155.8572 H       1  UNL1        0.1488
     23 C         141.8368  142.9029  165.3136 C.ar    1  UNL1        0.0503
     24 C         142.9524  142.3238  166.1321 C.ar    1  UNL1        0.0144
     25 C         142.6918  141.8624  167.5354 C.ar    1  UNL1       -0.0002
     26 C         141.3155  141.9801  168.1202 C.ar    1  UNL1        0.0182
     27 C         140.1999  142.5592  167.3016 C.ar    1  UNL1       -0.0002
     28 C         140.4605  143.0206  165.8984 C.ar    1  UNL1        0.0144
     29 C         141.0549  141.5187  169.5234 C.3     1  UNL1        0.2827
     30 O         141.5235  140.1416  169.1577 O.3     1  UNL1       -0.3692
     31 H         141.7834  140.1260  168.2233 H       1  UNL1        0.2112
     32 C         140.7942  141.0574  170.9267 C.3     1  UNL1        0.4311
     33 F         140.5336  140.5960  172.3300 F       1  UNL1       -0.1669
     34 F         139.6610  140.2057  170.4362 F       1  UNL1       -0.1669
     35 F         141.4396  141.5233  171.3152 F       1  UNL1       -0.1669
     36 C         140.5863  142.8959  169.8892 C.3     1  UNL1        0.4311
     37 F         140.1176  144.2731  170.2549 F       1  UNL1       -0.1669
     38 F         139.7247  142.7021  169.9581 F       1  UNL1       -0.1669
     39 F         141.8433  143.7142  169.9072 F       1  UNL1       -0.1669
@<TRIPOS>BOND
     1    20    21    1
     2    21    17    1
     3    17    18    2
     4    17    19    2
     5    17     5    1
     6     5     6   ar
     7     6     7   ar
     8     7     8   ar
     9     8     9   ar
    10     9    10   ar
    11     9    11    1
    12    11    12    1
    13    12    13   am
    14    13    14    1
    15    13    15    2
    16    12    16    1
    17    16     1    1
    18     1     2    2
    19     1     3   am
    20     3    23    1
    21    23    24   ar
    22    24    25   ar
    23    25    26   ar
    24    26    29    1
    25    29    30    1
    26    29    32    1
    27    32    33    1
    28    32    34    1
    29    32    35    1
    30    29    36    1
    31    36    37    1
    32    36    38    1
    33    36    39    1
    34    26    27   ar
    35    27    28   ar
    36    10     5   ar
    37    28    23   ar
    38    16     8    1
    39    21    22    1
    40     3     4    1
    41    30    31    1
@<TRIPOS>MOLECULE
*****
 39 41 0 0 0
SMALL
GASTEIGER

@<TRIPOS>ATOM
      1 C         142.5197  138.0394  158.2160 C.2     1  UNL1        0.2485
      2 O         143.6764  138.9451  157.9133 O.2     1  UNL1       -0.2726
      3 N         141.8835  138.0638  159.5742 N.am    1  UNL1       -0.2823
      4 H         141.1243  137.4694  159.7730 H       1  UNL1        0.1549
      5 C         143.2331  133.0606  155.6983 C.ar    1  UNL1        0.1217
      6 C         144.0612  133.6402  156.8066 C.ar    1  UNL1        0.0196
      7 C         143.7270  134.9919  157.3645 C.ar    1  UNL1       -0.0011
      8 C         142.5648  135.7640  156.8141 C.ar    1  UNL1        0.0022
      9 C         141.7368  135.1845  155.7057 C.ar    1  UNL1       -0.0029
     10 C         142.0710  133.8328  155.1479 C.ar    1  UNL1        0.0170
     11 C         140.6592  136.1716  155.3672 C.3     1  UNL1        0.1206
     12 N         140.8214  137.3612  156.2664 N.am    1  UNL1       -0.2655
     13 C         139.9574  138.5875  156.2707 C.2     1  UNL1        0.2269
     14 C         138.8084  138.6987  155.3130 C.3     1  UNL1        0.0949
     15 O         140.2426  139.7025  157.2327 O.2     1  UNL1       -0.2748
     16 C         141.9991  137.1093  157.1606 C.3     1  UNL1        0.1750
     17 S         143.5673  131.7089  155.1404 S.O2    1  UNL1        0.0603
     18 O         144.9511  131.8162  155.7092 O.2     1  UNL1       -0.1530
     19 O         142.1835  131.6016  154.5716 O.2     1  UNL1       -0.1530
     20 C         144.8533  129.4582  155.3144 C.3     1  UNL1        0.1102
     21 N         143.9014  130.3572  154.5826 N.3     1  UNL1       -0.1779
     22 H         143.0217  129.8480  154.4977 H       1  UNL1        0.1488
     23 C         142.4041  138.9939  160.6297 C.ar    1  UNL1        0.0503
     24 C         141.7568  140.3312  160.8364 C.ar    1  UNL1        0.0144
     25 C         142.2774  141.2613  161.8918 C.ar    1  UNL1       -0.0002
     26 C         143.4452  140.8541  162.7406 C.ar    1  UNL1        0.0182
     27 C         144.0924  139.5168  162.5339 C.ar    1  UNL1       -0.0002
     28 C         143.5719  138.5867  161.4784 C.ar    1  UNL1        0.0144
     29 C         143.9658  141.7842  163.7960 C.3     1  UNL1        0.2827
     30 O         143.5229  140.8244  164.8602 O.3     1  UNL1       -0.3692
     31 H         143.1101  140.0505  164.4462 H       1  UNL1        0.2112
     32 C         144.4864  142.7143  164.8514 C.3     1  UNL1        0.4311
     33 F         145.0069  143.6443  165.9068 F       1  UNL1       -0.1669
     34 F         143.0888  142.9276  165.3527 F       1  UNL1       -0.1669
     35 F         145.3429  142.6562  164.6335 F       1  UNL1       -0.1669
     36 C         144.4087  142.7440  162.7317 C.3     1  UNL1        0.4311
     37 F         144.8515  143.7038  161.6675 F       1  UNL1       -0.1669
     38 F         143.7972  143.3660  162.8860 F       1  UNL1       -0.1669
     39 F         145.5808  142.0609  162.0919 F       1  UNL1       -0.1669
@<TRIPOS>BOND
     1    20    21    1
     2    21    17    1
     3    17    18    2
     4    17    19    2
     5    17     5    1
     6     5     6   ar
     7     6     7   ar
     8     7     8   ar
     9     8     9   ar
    10     9    10   ar
    11     9    11    1
    12    11    12    1
    13    12    13   am
    14    13    14    1
    15    13    15    2
    16    12    16    1
    17    16     1    1
    18     1     2    2
    19     1     3   am
    20     3    23    1
    21    23    24   ar
    22    24    25   ar
    23    25    26   ar
    24    26    29    1
    25    29    30    1
    26    29    32    1
    27    32    33    1
    28    32    34    1
    29    32    35    1
    30    29    36    1
    31    36    37    1
    32    36    38    1
    33    36    39    1
    34    26    27   ar
    35    27    28   ar
    36    10     5   ar
    37    28    23   ar
    38    16     8    1
    39    21    22    1
    40     3     4    1
    41    30    31    1
@<TRIPOS>MOLECULE
*****
 39 41 0 0 0
SMALL
GASTEIGER

@<TRIPOS>ATOM
      1 C         141.7216  139.1189  158.6627 C.2     1  UNL1        0.2485
      2 O         142.5052  138.2559  159.6067 O.2     1  UNL1       -0.2726
      3 N         140.4751  139.8069  159.1347 N.am    1  UNL1       -0.2823
      4 H         139.9608  140.3734  158.5151 H       1  UNL1        0.1549
      5 C         145.6763  141.3564  155.3475 C.ar    1  UNL1        0.1217
      6 C         145.6003  141.4346  156.8435 C.ar    1  UNL1        0.0196
      7 C         144.4674  140.7749  157.5724 C.ar    1  UNL1       -0.0011
      8 C         143.4105  140.0371  156.8054 C.ar    1  UNL1        0.0022
      9 C         143.4864  139.9589  155.3094 C.ar    1  UNL1       -0.0029
     10 C         144.6193  140.6186  154.5804 C.ar    1  UNL1        0.0170
     11 C         142.3074  139.1674  154.8260 C.3     1  UNL1        0.1206
     12 N         141.5028  138.7564  156.0234 N.am    1  UNL1       -0.2655
     13 C         140.2385  137.9495  156.0014 C.2     1  UNL1        0.2269
     14 C         139.6721  137.4784  154.6948 C.3     1  UNL1        0.0949
     15 O         139.5406  137.6138  157.2860 O.2     1  UNL1       -0.2748
     16 C         142.1846  139.2939  157.2467 C.3     1  UNL1        0.1750
     17 S         146.8092  142.0161  154.6186 S.O2    1  UNL1        0.0603
     18 O         145.9061  142.2750  153.4492 O.2     1  UNL1       -0.1530
     19 O         147.7123  141.7572  155.7879 O.2     1  UNL1       -0.1530
     20 C         147.8015  144.0889  153.4067 C.3     1  UNL1        0.1102
     21 N         147.9421  142.6758  153.8896 N.3     1  UNL1       -0.1779
     22 H         148.7462  142.6576  154.5170 H       1  UNL1        0.1488
     23 C         140.0122  139.6319  160.5507 C.ar    1  UNL1        0.0503
     24 C         138.9189  138.6549  160.8670 C.ar    1  UNL1        0.0144
     25 C         138.4560  138.4799  162.2830 C.ar    1  UNL1       -0.0002
     26 C         139.0863  139.2819  163.3828 C.ar    1  UNL1        0.0182
     27 C         140.1796  140.2589  163.0664 C.ar    1  UNL1       -0.0002
     28 C         140.6426  140.4339  161.6504 C.ar    1  UNL1        0.0144
     29 C         138.6234  139.1069  164.7988 C.3     1  UNL1        0.2827
     30 O         137.7249  140.2990  164.6524 O.3     1  UNL1       -0.3692
     31 H         137.8135  140.6627  163.7575 H       1  UNL1        0.2112
     32 C         138.1605  138.9319  166.2148 C.3     1  UNL1        0.4311
     33 F         137.6976  138.7569  167.6308 F       1  UNL1       -0.1669
     34 F         138.8438  140.2115  166.5963 F       1  UNL1       -0.1669
     35 F         137.7267  138.1693  166.0931 F       1  UNL1       -0.1669
     36 C         139.5219  137.9147  164.9452 C.3     1  UNL1        0.4311
     37 F         140.4204  136.7226  165.0916 F       1  UNL1       -0.1669
     38 F         138.9709  137.3198  164.5889 F       1  UNL1       -0.1669
     39 F         140.7587  138.4691  165.5878 F       1  UNL1       -0.1669
@<TRIPOS>BOND
     1    20    21    1
     2    21    17    1
     3    17    18    2
     4    17    19    2
     5    17     5    1
     6     5     6   ar
     7     6     7   ar
     8     7     8   ar
     9     8     9   ar
    10     9    10   ar
    11     9    11    1
    12    11    12    1
    13    12    13   am
    14    13    14    1
    15    13    15    2
    16    12    16    1
    17    16     1    1
    18     1     2    2
    19     1     3   am
    20     3    23    1
    21    23    24   ar
    22    24    25   ar
    23    25    26   ar
    24    26    29    1
    25    29    30    1
    26    29    32    1
    27    32    33    1
    28    32    34    1
    29    32    35    1
    30    29    36    1
    31    36    37    1
    32    36    38    1
    33    36    39    1
    34    26    27   ar
    35    27    28   ar
    36    10     5   ar
    37    28    23   ar
    38    16     8    1
    39    21    22    1
    40     3     4    1
    41    30    31    1
@<TRIPOS>MOLECULE
*****
 39 41 0 0 0
SMALL
GASTEIGER

@<TRIPOS>ATOM
      1 C         140.4111  141.9547  162.0939 C.2     1  UNL1        0.2485
      2 O         139.3312  142.5243  162.9652 O.2     1  UNL1       -0.2726
      3 N         141.6174  141.3156  162.7158 N.am    1  UNL1       -0.2823
      4 H         142.3262  140.9417  162.1439 H       1  UNL1        0.1549
      5 C         140.2892  145.3755  157.6308 C.ar    1  UNL1        0.1217
      6 C         140.4475  145.7710  159.0690 C.ar    1  UNL1        0.0196
      7 C         140.4584  144.7199  160.1391 C.ar    1  UNL1       -0.0011
      8 C         140.3110  143.2733  159.7710 C.ar    1  UNL1        0.0022
      9 C         140.1527  142.8778  158.3328 C.ar    1  UNL1       -0.0029
     10 C         140.1418  143.9289  157.2627 C.ar    1  UNL1        0.0170
     11 C         140.0288  141.3840  158.2738 C.3     1  UNL1        0.1206
     12 N         140.1105  140.8564  159.6755 N.am    1  UNL1       -0.2655
     13 C         140.0317  139.4143  160.0809 C.2     1  UNL1        0.2269
     14 C         139.8552  138.3507  159.0380 C.3     1  UNL1        0.0949
     15 O         140.1294  139.0359  161.5290 O.2     1  UNL1       -0.2748
     16 C         140.2849  142.0241  160.6009 C.3     1  UNL1        0.1750
     17 S         140.2783  146.4265  156.5607 S.O2    1  UNL1        0.0603
     18 O         141.3345  145.6720  155.8089 O.2     1  UNL1       -0.1530
     19 O         139.2222  147.1810  157.3125 O.2     1  UNL1       -0.1530
     20 C         139.0357  148.3026  155.2622 C.3     1  UNL1        0.1102
     21 N         140.2674  147.4776  155.4906 N.3     1  UNL1       -0.1779
     22 H         141.0215  148.1287  155.7097 H       1  UNL1        0.1488
     23 C         141.7436  141.2462  164.2088 C.ar    1  UNL1        0.0503
     24 C         142.5741  142.2595  164.9392 C.ar    1  UNL1        0.0144
     25 C         142.7003  142.1900  166.4323 C.ar    1  UNL1       -0.0002
     26 C         141.9960  141.1074  167.1950 C.ar    1  UNL1        0.0182
     27 C         141.1654  140.0942  166.4646 C.ar    1  UNL1       -0.0002
     28 C         141.0392  140.1636  164.9716 C.ar    1  UNL1        0.0144
     29 C         142.1222  141.0380  168.6881 C.3     1  UNL1        0.2827
     30 O         142.9113  139.7686  168.5624 O.3     1  UNL1       -0.3692
     31 H         143.0044  139.5372  167.6250 H       1  UNL1        0.2112
     32 C         142.2484  140.9686  170.1811 C.3     1  UNL1        0.4311
     33 F         142.3746  140.8992  171.6742 F       1  UNL1       -0.1669
     34 F         143.7198  141.2379  170.0693 F       1  UNL1       -0.1669
     35 F         141.3951  140.8058  170.3541 F       1  UNL1       -0.1669
     36 C         141.3331  142.3075  168.8138 C.3     1  UNL1        0.4311
     37 F         140.5441  143.5769  168.9395 F       1  UNL1       -0.1669
     38 F         142.0152  142.8405  169.0012 F       1  UNL1       -0.1669
     39 F         139.9189  141.8835  168.5489 F       1  UNL1       -0.1669
@<TRIPOS>BOND
     1    20    21    1
     2    21    17    1
     3    17    18    2
     4    17    19    2
     5    17     5    1
     6     5     6   ar
     7     6     7   ar
     8     7     8   ar
     9     8     9   ar
    10     9    10   ar
    11     9    11    1
    12    11    12    1
    13    12    13   am
    14    13    14    1
    15    13    15    2
    16    12    16    1
    17    16     1    1
    18     1     2    2
    19     1     3   am
    20     3    23    1
    21    23    24   ar
    22    24    25   ar
    23    25    26   ar
    24    26    29    1
    25    29    30    1
    26    29    32    1
    27    32    33    1
    28    32    34    1
    29    32    35    1
    30    29    36    1
    31    36    37    1
    32    36    38    1
    33    36    39    1
    34    26    27   ar
    35    27    28   ar
    36    10     5   ar
    37    28    23   ar
    38    16     8    1
    39    21    22    1
    40     3     4    1
    41    30    31    1
@<TRIPOS>MOLECULE
*****
 39 41 0 0 0
SMALL
GASTEIGER

@<TRIPOS>ATOM
      1 C         141.3615  141.1242  161.8976 C.2     1  UNL1        0.2485
      2 O         140.2258  140.3049  162.4351 O.2     1  UNL1       -0.2726
      3 N         142.2729  141.8524  162.8406 N.am    1  UNL1       -0.2823
      4 H         143.0183  142.3902  162.4878 H       1  UNL1        0.1549
      5 C         142.8328  138.2805  157.2733 C.ar    1  UNL1        0.1217
      6 C         142.7319  137.7443  158.6705 C.ar    1  UNL1        0.0196
      7 C         142.3216  138.6501  159.7936 C.ar    1  UNL1       -0.0011
      8 C         142.0122  140.0919  159.5194 C.ar    1  UNL1        0.0022
      9 C         142.1131  140.6281  158.1222 C.ar    1  UNL1       -0.0029
     10 C         142.5234  139.7224  156.9991 C.ar    1  UNL1        0.0170
     11 C         141.7490  142.0829  158.1565 C.3     1  UNL1        0.1206
     12 N         141.4232  142.4458  159.5750 N.am    1  UNL1       -0.2655
     13 C         141.0077  143.8012  160.0652 C.2     1  UNL1        0.2269
     14 C         140.8873  144.9433  159.1002 C.3     1  UNL1        0.0949
     15 O         140.7126  144.0146  161.5203 O.2     1  UNL1       -0.2748
     16 C         141.5858  141.2153  160.4173 C.3     1  UNL1        0.1750
     17 S         143.2431  137.3748  156.1502 S.O2    1  UNL1        0.0603
     18 O         144.4493  138.2307  155.9005 O.2     1  UNL1       -0.1530
     19 O         142.0368  136.5188  156.3998 O.2     1  UNL1       -0.1530
     20 C         142.6351  135.5922  154.3605 C.3     1  UNL1        0.1102
     21 N         143.6533  136.4690  155.0271 N.3     1  UNL1       -0.1779
     22 H         144.0514  137.0634  154.2999 H       1  UNL1        0.1488
     23 C         142.0486  141.7613  164.3209 C.ar    1  UNL1        0.0503
     24 C         142.7980  140.7461  165.1319 C.ar    1  UNL1        0.0144
     25 C         142.5737  140.6550  166.6123 C.ar    1  UNL1       -0.0002
     26 C         141.6000  141.5790  167.2816 C.ar    1  UNL1        0.0182
     27 C         140.8506  142.5942  166.4705 C.ar    1  UNL1       -0.0002
     28 C         141.0749  142.6853  164.9902 C.ar    1  UNL1        0.0144
     29 C         141.3756  141.4879  168.7619 C.3     1  UNL1        0.2827
     30 O         139.9831  140.9857  168.5200 O.3     1  UNL1       -0.3692
     31 H         139.8197  140.9330  167.5653 H       1  UNL1        0.2112
     32 C         141.1513  141.3968  170.2422 C.3     1  UNL1        0.4311
     33 F         140.9270  141.3057  171.7225 F       1  UNL1       -0.1669
     34 F         141.0181  139.9070  170.1303 F       1  UNL1       -0.1669
     35 F         141.2132  142.2635  170.4143 F       1  UNL1       -0.1669
     36 C         142.7682  141.9902  169.0039 C.3     1  UNL1        0.4311
     37 F         144.1607  142.4924  169.2458 F       1  UNL1       -0.1669
     38 F         142.6448  142.8079  168.6865 F       1  UNL1       -0.1669
     39 F         143.4755  140.8179  169.6166 F       1  UNL1       -0.1669
@<TRIPOS>BOND
     1    20    21    1
     2    21    17    1
     3    17    18    2
     4    17    19    2
     5    17     5    1
     6     5     6   ar
     7     6     7   ar
     8     7     8   ar
     9     8     9   ar
    10     9    10   ar
    11     9    11    1
    12    11    12    1
    13    12    13   am
    14    13    14    1
    15    13    15    2
    16    12    16    1
    17    16     1    1
    18     1     2    2
    19     1     3   am
    20     3    23    1
    21    23    24   ar
    22    24    25   ar
    23    25    26   ar
    24    26    29    1
    25    29    30    1
    26    29    32    1
    27    32    33    1
    28    32    34    1
    29    32    35    1
    30    29    36    1
    31    36    37    1
    32    36    38    1
    33    36    39    1
    34    26    27   ar
    35    27    28   ar
    36    10     5   ar
    37    28    23   ar
    38    16     8    1
    39    21    22    1
    40     3     4    1
    41    30    31    1
@<TRIPOS>MOLECULE
*****
 39 41 0 0 0
SMALL
GASTEIGER

@<TRIPOS>ATOM
      1 C         141.6301  138.5464  158.0546 C.2     1  UNL1        0.2485
      2 O         141.5131  138.1134  159.4859 O.2     1  UNL1       -0.2726
      3 N         142.0819  139.9387  157.7269 N.am    1  UNL1       -0.2823
      4 H         142.1588  140.2230  156.7874 H       1  UNL1        0.1549
      5 C         143.0087  133.6756  155.6028 C.ar    1  UNL1        0.1217
      6 C         143.6734  134.3113  156.7877 C.ar    1  UNL1        0.0196
      7 C         143.1719  135.6231  157.3147 C.ar    1  UNL1       -0.0011
      8 C         142.0058  136.2992  156.6568 C.ar    1  UNL1        0.0022
      9 C         141.3411  135.6636  155.4719 C.ar    1  UNL1       -0.0029
     10 C         141.8425  134.3518  154.9449 C.ar    1  UNL1        0.0170
     11 C         140.2199  136.5587  155.0338 C.3     1  UNL1        0.1206
     12 N         140.1918  137.7476  155.9480 N.am    1  UNL1       -0.2655
     13 C         139.2289  138.8954  155.8724 C.2     1  UNL1        0.2269
     14 C         138.1719  138.9187  154.8084 C.3     1  UNL1        0.0949
     15 O         139.3232  140.0197  156.8607 O.2     1  UNL1       -0.2748
     16 C         141.2955  137.5872  156.9510 C.3     1  UNL1        0.1750
     17 S         143.5101  132.3638  155.0758 S.O2    1  UNL1        0.0603
     18 O         142.3607  132.3111  154.1135 O.2     1  UNL1       -0.1530
     19 O         144.6595  132.4166  156.0382 O.2     1  UNL1       -0.1530
     20 C         144.7799  130.1277  155.4462 C.3     1  UNL1        0.1102
     21 N         144.0116  131.0520  154.5489 N.3     1  UNL1       -0.1779
     22 H         143.1955  130.5346  154.2223 H       1  UNL1        0.1488
     23 C         142.4166  140.8980  158.8304 C.ar    1  UNL1        0.0503
     24 C         141.3186  141.5290  159.6343 C.ar    1  UNL1        0.0144
     25 C         141.6533  142.4882  160.7379 C.ar    1  UNL1       -0.0002
     26 C         143.0859  142.8164  161.0376 C.ar    1  UNL1        0.0182
     27 C         144.1838  142.1854  160.2337 C.ar    1  UNL1       -0.0002
     28 C         143.8492  141.2262  159.1302 C.ar    1  UNL1        0.0144
     29 C         143.4206  143.7757  162.1412 C.3     1  UNL1        0.2827
     30 O         142.6048  144.8377  161.4655 O.3     1  UNL1       -0.3692
     31 H         142.2249  144.4818  160.6470 H       1  UNL1        0.2112
     32 C         143.7552  144.7349  163.2448 C.3     1  UNL1        0.4311
     33 F         144.0899  145.6941  164.3483 F       1  UNL1       -0.1669
     34 F         142.7369  144.0754  164.1268 F       1  UNL1       -0.1669
     35 F         144.3762  145.1904  162.8072 F       1  UNL1       -0.1669
     36 C         144.2364  142.7136  162.8169 C.3     1  UNL1        0.4311
     37 F         145.0522  141.6516  163.4926 F       1  UNL1       -0.1669
     38 F         145.0263  143.0999  162.7101 F       1  UNL1       -0.1669
     39 F         143.2233  141.6906  163.2378 F       1  UNL1       -0.1669
@<TRIPOS>BOND
     1    20    21    1
     2    21    17    1
     3    17    18    2
     4    17    19    2
     5    17     5    1
     6     5     6   ar
     7     6     7   ar
     8     7     8   ar
     9     8     9   ar
    10     9    10   ar
    11     9    11    1
    12    11    12    1
    13    12    13   am
    14    13    14    1
    15    13    15    2
    16    12    16    1
    17    16     1    1
    18     1     2    2
    19     1     3   am
    20     3    23    1
    21    23    24   ar
    22    24    25   ar
    23    25    26   ar
    24    26    29    1
    25    29    30    1
    26    29    32    1
    27    32    33    1
    28    32    34    1
    29    32    35    1
    30    29    36    1
    31    36    37    1
    32    36    38    1
    33    36    39    1
    34    26    27   ar
    35    27    28   ar
    36    10     5   ar
    37    28    23   ar
    38    16     8    1
    39    21    22    1
    40     3     4    1
    41    30    31    1
@<TRIPOS>MOLECULE
*****
 39 41 0 0 0
SMALL
GASTEIGER

@<TRIPOS>ATOM
      1 C         142.4582  143.1620  161.0544 C.2     1  UNL1        0.2485
      2 O         143.2586  144.2452  161.7147 O.2     1  UNL1       -0.2726
      3 N         141.7961  142.1049  161.8876 N.am    1  UNL1       -0.2823
      4 H         141.2707  141.3939  161.4543 H       1  UNL1        0.1549
      5 C         140.3307  145.8138  156.5736 C.ar    1  UNL1        0.1217
      6 C         140.2173  146.2318  158.0097 C.ar    1  UNL1        0.0196
      7 C         140.8505  145.3998  159.0852 C.ar    1  UNL1       -0.0011
      8 C         141.5972  144.1499  158.7247 C.ar    1  UNL1        0.0022
      9 C         141.7106  143.7319  157.2886 C.ar    1  UNL1       -0.0029
     10 C         141.0773  144.5638  156.2131 C.ar    1  UNL1        0.0170
     11 C         142.5033  142.4594  157.2374 C.3     1  UNL1        0.1206
     12 N         142.8799  142.0911  158.6418 N.am    1  UNL1       -0.2655
     13 C         143.6766  140.8890  159.0547 C.2     1  UNL1        0.2269
     14 C         144.1731  139.9260  158.0174 C.3     1  UNL1        0.0949
     15 O         143.9767  140.6501  160.5048 O.2     1  UNL1       -0.2748
     16 C         142.3198  143.1358  159.5610 C.3     1  UNL1        0.1750
     17 S         139.6974  146.6458  155.4981 S.O2    1  UNL1        0.0603
     18 O         139.0577  147.5105  156.5436 O.2     1  UNL1       -0.1530
     19 O         140.3371  145.7811  154.4525 O.2     1  UNL1       -0.1530
     20 C         139.7430  148.7262  153.9426 C.3     1  UNL1        0.1102
     21 N         139.0641  147.4778  154.4225 N.3     1  UNL1       -0.1779
     22 H         138.9523  146.8722  153.6093 H       1  UNL1        0.1488
     23 C         141.9344  142.1310  163.3810 C.ar    1  UNL1        0.0503
     24 C         140.9657  142.9209  164.2102 C.ar    1  UNL1        0.0144
     25 C         141.1040  142.9471  165.7036 C.ar    1  UNL1       -0.0002
     26 C         142.2110  142.1833  166.3678 C.ar    1  UNL1        0.0182
     27 C         143.1797  141.3934  165.5385 C.ar    1  UNL1       -0.0002
     28 C         143.0414  141.3672  164.0452 C.ar    1  UNL1        0.0144
     29 C         142.3493  142.2094  167.8611 C.3     1  UNL1        0.2827
     30 O         143.7169  142.8102  167.7239 O.3     1  UNL1       -0.3692
     31 H         143.9274  142.9237  166.7839 H       1  UNL1        0.2112
     32 C         142.4877  142.2356  169.3545 C.3     1  UNL1        0.4311
     33 F         142.6260  142.2617  170.8479 F       1  UNL1       -0.1669
     34 F         142.8470  140.7793  169.3467 F       1  UNL1       -0.1669
     35 F         142.2870  143.0910  169.4666 F       1  UNL1       -0.1669
     36 C         140.9818  141.6087  167.9983 C.3     1  UNL1        0.4311
     37 F         139.6142  141.0080  168.1355 F       1  UNL1       -0.1669
     38 F         140.5859  142.3200  168.3475 F       1  UNL1       -0.1669
     39 F         141.1432  140.2143  167.4698 F       1  UNL1       -0.1669
@<TRIPOS>BOND
     1    20    21    1
     2    21    17    1
     3    17    18    2
     4    17    19    2
     5    17     5    1
     6     5     6   ar
     7     6     7   ar
     8     7     8   ar
     9     8     9   ar
    10     9    10   ar
    11     9    11    1
    12    11    12    1
    13    12    13   am
    14    13    14    1
    15    13    15    2
    16    12    16    1
    17    16     1    1
    18     1     2    2
    19     1     3   am
    20     3    23    1
    21    23    24   ar
    22    24    25   ar
    23    25    26   ar
    24    26    29    1
    25    29    30    1
    26    29    32    1
    27    32    33    1
    28    32    34    1
    29    32    35    1
    30    29    36    1
    31    36    37    1
    32    36    38    1
    33    36    39    1
    34    26    27   ar
    35    27    28   ar
    36    10     5   ar
    37    28    23   ar
    38    16     8    1
    39    21    22    1
    40     3     4    1
    41    30    31    1
