@<TRIPOS>MOLECULE
*****
 19 20 0 0 0
SMALL
GASTEIGER

@<TRIPOS>ATOM
      1 O         140.9363  140.7310  164.9743 O.2     1  UNL1       -0.2698
      2 C         141.4366  139.6916  165.9332 C.2     1  UNL1        0.2496
      3 N         142.1207  138.4611  165.4158 N.am    1  UNL1       -0.2779
      4 H         142.4491  137.7790  166.0451 H       1  UNL1        0.1553
      5 C         141.2528  139.8829  167.4096 C.ar    1  UNL1        0.0560
      6 C         142.4346  139.7997  168.3295 C.ar    1  UNL1        0.0070
      7 C         142.2508  139.9910  169.8058 C.ar    1  UNL1        0.0321
      8 C         140.8851  140.2654  170.3622 C.ar    1  UNL1        0.1674
      9 F         140.7013  140.4567  171.8386 F       1  UNL1       -0.2018
     10 C         139.7033  140.3486  169.4423 C.ar    1  UNL1        0.1675
     11 F         138.3376  140.6230  169.9987 F       1  UNL1       -0.2018
     12 C         139.8871  140.1573  167.9660 C.ar    1  UNL1        0.0365
     13 C         142.3045  138.2698  163.9393 C.ar    1  UNL1        0.0895
     14 C         143.5811  138.7013  163.2804 C.ar    1  UNL1        0.1176
     15 N         143.7648  138.5100  161.8041 N.ar    1  UNL1       -0.2139
     16 C         142.6721  137.8873  160.9867 C.ar    1  UNL1        0.2240
     17 CL        142.8559  137.6960  159.5103 Cl      1  UNL1       -0.0410
     18 N         141.3955  137.4559  161.6456 N.ar    1  UNL1       -0.2139
     19 C         141.2118  137.6471  163.1220 C.ar    1  UNL1        0.1176
@<TRIPOS>BOND
     1     1     2    2
     2     2     3   am
     3     3    13    1
     4    13    14   ar
     5    14    15   ar
     6    15    16   ar
     7    16    17    1
     8    16    18   ar
     9    18    19   ar
    10     2     5    1
    11     5     6   ar
    12     6     7   ar
    13     7     8   ar
    14     8     9    1
    15     8    10   ar
    16    10    11    1
    17    10    12   ar
    18    19    13   ar
    19    12     5   ar
    20     3     4    1
@<TRIPOS>MOLECULE
*****
 19 20 0 0 0
SMALL
GASTEIGER

@<TRIPOS>ATOM
      1 O         140.8581  141.6251  164.9815 O.2     1  UNL1       -0.2698
      2 C         139.7748  141.2595  165.9525 C.2     1  UNL1        0.2496
      3 N         138.4688  140.7191  165.4505 N.am    1  UNL1       -0.2779
      4 H         137.7578  140.4791  166.0878 H       1  UNL1        0.1553
      5 C         139.9977  141.4343  167.4256 C.ar    1  UNL1        0.0560
      6 C         139.7840  140.2795  168.3587 C.ar    1  UNL1        0.0070
      7 C         140.0069  140.4544  169.8317 C.ar    1  UNL1        0.0321
      8 C         140.4434  141.7841  170.3715 C.ar    1  UNL1        0.1674
      9 F         140.6663  141.9589  171.8446 F       1  UNL1       -0.2018
     10 C         140.6571  142.9389  169.4384 C.ar    1  UNL1        0.1675
     11 F         141.0937  144.2685  169.9783 F       1  UNL1       -0.2018
     12 C         140.4343  142.7640  167.9654 C.ar    1  UNL1        0.0365
     13 C         138.2459  140.5442  163.9775 C.ar    1  UNL1        0.0895
     14 C         138.5384  139.2251  163.3260 C.ar    1  UNL1        0.1176
     15 N         138.3156  139.0503  161.8531 N.ar    1  UNL1       -0.2139
     16 C         137.8002  140.1947  161.0315 C.ar    1  UNL1        0.2240
     17 CL        137.5773  140.0198  159.5584 Cl      1  UNL1       -0.0410
     18 N         137.5077  141.5137  161.6829 N.ar    1  UNL1       -0.2139
     19 C         137.7305  141.6885  163.1559 C.ar    1  UNL1        0.1176
@<TRIPOS>BOND
     1     1     2    2
     2     2     3   am
     3     3    13    1
     4    13    14   ar
     5    14    15   ar
     6    15    16   ar
     7    16    17    1
     8    16    18   ar
     9    18    19   ar
    10     2     5    1
    11     5     6   ar
    12     6     7   ar
    13     7     8   ar
    14     8     9    1
    15     8    10   ar
    16    10    11    1
    17    10    12   ar
    18    19    13   ar
    19    12     5   ar
    20     3     4    1
@<TRIPOS>MOLECULE
*****
 19 20 0 0 0
SMALL
GASTEIGER

@<TRIPOS>ATOM
      1 O         141.2108  140.8690  165.0116 O.2     1  UNL1       -0.2698
      2 C         141.4547  139.7249  165.9504 C.2     1  UNL1        0.2496
      3 N         141.9330  138.4067  165.4180 N.am    1  UNL1       -0.2779
      4 H         142.0931  137.6557  166.0342 H       1  UNL1        0.1553
      5 C         141.2202  139.8989  167.4218 C.ar    1  UNL1        0.0560
      6 C         139.8539  140.2576  167.9262 C.ar    1  UNL1        0.0070
      7 C         139.6194  140.4317  169.3975 C.ar    1  UNL1        0.0321
      8 C         140.7513  140.2471  170.3643 C.ar    1  UNL1        0.1674
      9 F         140.5168  140.4212  171.8357 F       1  UNL1       -0.2018
     10 C         142.1176  139.8884  169.8599 C.ar    1  UNL1        0.1675
     11 F         143.2495  139.7039  170.8267 F       1  UNL1       -0.2018
     12 C         142.3521  139.7144  168.3886 C.ar    1  UNL1        0.0365
     13 C         142.1675  138.2326  163.9466 C.ar    1  UNL1        0.0895
     14 C         141.0964  137.6372  163.0818 C.ar    1  UNL1        0.1176
     15 N         141.3309  137.4631  161.6105 N.ar    1  UNL1       -0.2139
     16 C         142.6365  137.8845  161.0041 C.ar    1  UNL1        0.2240
     17 CL        142.8710  137.7104  159.5328 Cl      1  UNL1       -0.0410
     18 N         143.7077  138.4799  161.8690 N.ar    1  UNL1       -0.2139
     19 C         143.4732  138.6539  163.3403 C.ar    1  UNL1        0.1176
@<TRIPOS>BOND
     1     1     2    2
     2     2     3   am
     3     3    13    1
     4    13    14   ar
     5    14    15   ar
     6    15    16   ar
     7    16    17    1
     8    16    18   ar
     9    18    19   ar
    10     2     5    1
    11     5     6   ar
    12     6     7   ar
    13     7     8   ar
    14     8     9    1
    15     8    10   ar
    16    10    11    1
    17    10    12   ar
    18    19    13   ar
    19    12     5   ar
    20     3     4    1
@<TRIPOS>MOLECULE
*****
 19 20 0 0 0
SMALL
GASTEIGER

@<TRIPOS>ATOM
      1 O         140.6429  142.0539  165.0250 O.2     1  UNL1       -0.2698
      2 C         139.7429  141.4150  166.0407 C.2     1  UNL1        0.2496
      3 N         138.5641  140.6027  165.5928 N.am    1  UNL1       -0.2779
      4 H         137.9734  140.1833  166.2595 H       1  UNL1        0.1553
      5 C         140.0216  141.5884  167.5044 C.ar    1  UNL1        0.0560
      6 C         140.5766  142.8856  168.0136 C.ar    1  UNL1        0.0070
      7 C         140.8553  143.0590  169.4772 C.ar    1  UNL1        0.0321
      8 C         140.5790  141.9352  170.4316 C.ar    1  UNL1        0.1674
      9 F         140.8577  142.1087  171.8953 F       1  UNL1       -0.2018
     10 C         140.0240  140.6381  169.9224 C.ar    1  UNL1        0.1675
     11 F         139.7477  139.5144  170.8768 F       1  UNL1       -0.2018
     12 C         139.7453  140.4647  168.4588 C.ar    1  UNL1        0.0365
     13 C         138.2854  140.4292  164.1291 C.ar    1  UNL1        0.0895
     14 C         137.6455  141.5403  163.3507 C.ar    1  UNL1        0.1176
     15 N         137.3668  141.3668  161.8871 N.ar    1  UNL1       -0.2139
     16 C         137.7280  140.0822  161.2019 C.ar    1  UNL1        0.2240
     17 CL        137.4493  139.9088  159.7383 Cl      1  UNL1       -0.0410
     18 N         138.3679  138.9711  161.9804 N.ar    1  UNL1       -0.2139
     19 C         138.6466  139.1446  163.4440 C.ar    1  UNL1        0.1176
@<TRIPOS>BOND
     1     1     2    2
     2     2     3   am
     3     3    13    1
     4    13    14   ar
     5    14    15   ar
     6    15    16   ar
     7    16    17    1
     8    16    18   ar
     9    18    19   ar
    10     2     5    1
    11     5     6   ar
    12     6     7   ar
    13     7     8   ar
    14     8     9    1
    15     8    10   ar
    16    10    11    1
    17    10    12   ar
    18    19    13   ar
    19    12     5   ar
    20     3     4    1
@<TRIPOS>MOLECULE
*****
 19 20 0 0 0
SMALL
GASTEIGER

@<TRIPOS>ATOM
      1 O         139.7137  140.2148  164.9301 O.2     1  UNL1       -0.2698
      2 C         139.7764  141.5213  165.6643 C.2     1  UNL1        0.2496
      3 N         139.6091  142.8107  164.9164 N.am    1  UNL1       -0.2779
      4 H         139.6503  143.6682  165.3983 H       1  UNL1        0.1553
      5 C         140.0065  141.5384  167.1465 C.ar    1  UNL1        0.0560
      6 C         139.7543  140.3029  167.9589 C.ar    1  UNL1        0.0070
      7 C         139.9844  140.3200  169.4410 C.ar    1  UNL1        0.0321
      8 C         140.4665  141.5726  170.1108 C.ar    1  UNL1        0.1674
      9 F         140.6966  141.5896  171.5930 F       1  UNL1       -0.2018
     10 C         140.7187  142.8080  169.2984 C.ar    1  UNL1        0.1675
     11 F         141.2008  144.0606  169.9681 F       1  UNL1       -0.2018
     12 C         140.4886  142.7909  167.8163 C.ar    1  UNL1        0.0365
     13 C         139.3791  142.7936  163.4342 C.ar    1  UNL1        0.0895
     14 C         140.5306  142.5715  162.4990 C.ar    1  UNL1        0.1176
     15 N         140.3006  142.5544  161.0169 N.ar    1  UNL1       -0.2139
     16 C         138.9190  142.7595  160.4699 C.ar    1  UNL1        0.2240
     17 CL        138.6890  142.7425  158.9877 Cl      1  UNL1       -0.0410
     18 N         137.7675  142.9817  161.4051 N.ar    1  UNL1       -0.2139
     19 C         137.9975  142.9987  162.8872 C.ar    1  UNL1        0.1176
@<TRIPOS>BOND
     1     1     2    2
     2     2     3   am
     3     3    13    1
     4    13    14   ar
     5    14    15   ar
     6    15    16   ar
     7    16    17    1
     8    16    18   ar
     9    18    19   ar
    10     2     5    1
    11     5     6   ar
    12     6     7   ar
    13     7     8   ar
    14     8     9    1
    15     8    10   ar
    16    10    11    1
    17    10    12   ar
    18    19    13   ar
    19    12     5   ar
    20     3     4    1
@<TRIPOS>MOLECULE
*****
 19 20 0 0 0
SMALL
GASTEIGER

@<TRIPOS>ATOM
      1 O         140.6499  143.0773  164.6336 O.2     1  UNL1       -0.2698
      2 C         140.4221  142.1224  165.7677 C.2     1  UNL1        0.2496
      3 N         139.5788  140.8994  165.5605 N.am    1  UNL1       -0.2779
      4 H         139.4293  140.2726  166.3049 H       1  UNL1        0.1553
      5 C         141.0376  142.3906  167.1091 C.ar    1  UNL1        0.0560
      6 C         142.4536  141.9769  167.3808 C.ar    1  UNL1        0.0070
      7 C         143.0691  142.2451  168.7221 C.ar    1  UNL1        0.0321
      8 C         142.2686  142.9271  169.7918 C.ar    1  UNL1        0.1674
      9 F         142.8841  143.1953  171.1332 F       1  UNL1       -0.2018
     10 C         140.8526  143.3408  169.5201 C.ar    1  UNL1        0.1675
     11 F         140.0521  144.0227  170.5898 F       1  UNL1       -0.2018
     12 C         140.2371  143.0726  168.1788 C.ar    1  UNL1        0.0365
     13 C         138.9633  140.6312  164.2191 C.ar    1  UNL1        0.0895
     14 C         139.4806  139.5102  163.3672 C.ar    1  UNL1        0.1176
     15 N         138.8651  139.2420  162.0259 N.ar    1  UNL1       -0.2139
     16 C         137.7322  140.0948  161.5365 C.ar    1  UNL1        0.2240
     17 CL        137.1167  139.8266  160.1951 Cl      1  UNL1       -0.0410
     18 N         137.2150  141.2158  162.3885 N.ar    1  UNL1       -0.2139
     19 C         137.8305  141.4839  163.7298 C.ar    1  UNL1        0.1176
@<TRIPOS>BOND
     1     1     2    2
     2     2     3   am
     3     3    13    1
     4    13    14   ar
     5    14    15   ar
     6    15    16   ar
     7    16    17    1
     8    16    18   ar
     9    18    19   ar
    10     2     5    1
    11     5     6   ar
    12     6     7   ar
    13     7     8   ar
    14     8     9    1
    15     8    10   ar
    16    10    11    1
    17    10    12   ar
    18    19    13   ar
    19    12     5   ar
    20     3     4    1
@<TRIPOS>MOLECULE
*****
 19 20 0 0 0
SMALL
GASTEIGER

@<TRIPOS>ATOM
      1 O         141.8474  143.2178  165.1704 O.2     1  UNL1       -0.2698
      2 C         140.4797  142.6992  165.5025 C.2     1  UNL1        0.2496
      3 N         139.3583  142.8574  164.5190 N.am    1  UNL1       -0.2779
      4 H         138.4606  142.5170  164.7370 H       1  UNL1        0.1553
      5 C         140.2333  142.0223  166.8183 C.ar    1  UNL1        0.0560
      6 C         139.6834  140.6272  166.8527 C.ar    1  UNL1        0.0070
      7 C         139.4370  139.9504  168.1685 C.ar    1  UNL1        0.0321
      8 C         139.7407  140.6687  169.4498 C.ar    1  UNL1        0.1674
      9 F         139.4944  139.9918  170.7656 F       1  UNL1       -0.2018
     10 C         140.2907  142.0638  169.4154 C.ar    1  UNL1        0.1675
     11 F         140.5944  142.7821  170.6968 F       1  UNL1       -0.2018
     12 C         140.5370  142.7406  168.0997 C.ar    1  UNL1        0.0365
     13 C         139.6047  143.5342  163.2032 C.ar    1  UNL1        0.0895
     14 C         139.1342  144.9415  162.9840 C.ar    1  UNL1        0.1176
     15 N         139.3805  145.6183  161.6683 N.ar    1  UNL1       -0.2139
     16 C         140.0974  144.8878  160.5717 C.ar    1  UNL1        0.2240
     17 CL        140.3437  145.5647  159.2559 Cl      1  UNL1       -0.0410
     18 N         140.5679  143.4805  160.7908 N.ar    1  UNL1       -0.2139
     19 C         140.3215  142.8037  162.1066 C.ar    1  UNL1        0.1176
@<TRIPOS>BOND
     1     1     2    2
     2     2     3   am
     3     3    13    1
     4    13    14   ar
     5    14    15   ar
     6    15    16   ar
     7    16    17    1
     8    16    18   ar
     9    18    19   ar
    10     2     5    1
    11     5     6   ar
    12     6     7   ar
    13     7     8   ar
    14     8     9    1
    15     8    10   ar
    16    10    11    1
    17    10    12   ar
    18    19    13   ar
    19    12     5   ar
    20     3     4    1
@<TRIPOS>MOLECULE
*****
 19 20 0 0 0
SMALL
GASTEIGER

@<TRIPOS>ATOM
      1 O         141.5382  141.4112  164.9991 O.2     1  UNL1       -0.2698
      2 C         142.4983  142.0523  165.9569 C.2     1  UNL1        0.2496
      3 N         143.7577  142.6860  165.4449 N.am    1  UNL1       -0.2779
      4 H         144.3878  143.1067  166.0735 H       1  UNL1        0.1553
      5 C         142.1988  142.0596  167.4268 C.ar    1  UNL1        0.0560
      6 C         143.2902  142.3528  168.4130 C.ar    1  UNL1        0.0070
      7 C         142.9908  142.3601  169.8828 C.ar    1  UNL1        0.0321
      8 C         141.5999  142.0742  170.3663 C.ar    1  UNL1        0.1674
      9 F         141.3005  142.0815  171.8361 F       1  UNL1       -0.2018
     10 C         140.5085  141.7809  169.3800 C.ar    1  UNL1        0.1675
     11 F         139.1177  141.4950  169.8635 F       1  UNL1       -0.2018
     12 C         140.8080  141.7736  167.9102 C.ar    1  UNL1        0.0365
     13 C         144.0571  142.6787  163.9751 C.ar    1  UNL1        0.0895
     14 C         143.5136  143.7637  163.0935 C.ar    1  UNL1        0.1176
     15 N         143.8130  143.7564  161.6238 N.ar    1  UNL1       -0.2139
     16 C         144.6560  142.6640  161.0355 C.ar    1  UNL1        0.2240
     17 CL        144.9554  142.6566  159.5657 Cl      1  UNL1       -0.0410
     18 N         145.1995  141.5789  161.9171 N.ar    1  UNL1       -0.2139
     19 C         144.9001  141.5862  163.3868 C.ar    1  UNL1        0.1176
@<TRIPOS>BOND
     1     1     2    2
     2     2     3   am
     3     3    13    1
     4    13    14   ar
     5    14    15   ar
     6    15    16   ar
     7    16    17    1
     8    16    18   ar
     9    18    19   ar
    10     2     5    1
    11     5     6   ar
    12     6     7   ar
    13     7     8   ar
    14     8     9    1
    15     8    10   ar
    16    10    11    1
    17    10    12   ar
    18    19    13   ar
    19    12     5   ar
    20     3     4    1
@<TRIPOS>MOLECULE
*****
 19 20 0 0 0
SMALL
GASTEIGER

@<TRIPOS>ATOM
      1 O         141.3971  140.7966  164.9215 O.2     1  UNL1       -0.2698
      2 C         140.5758  139.8650  165.7627 C.2     1  UNL1        0.2496
      3 N         139.7357  138.8081  165.1093 N.am    1  UNL1       -0.2779
      4 H         139.1967  138.1966  165.6615 H       1  UNL1        0.1553
      5 C         140.5948  139.9904  167.2574 C.ar    1  UNL1        0.0560
      6 C         141.9003  139.9669  167.9955 C.ar    1  UNL1        0.0070
      7 C         141.9192  140.0923  169.4901 C.ar    1  UNL1        0.0321
      8 C         140.6325  140.2413  170.2466 C.ar    1  UNL1        0.1674
      9 F         140.6515  140.3667  171.7413 F       1  UNL1       -0.2018
     10 C         139.3270  140.2648  169.5084 C.ar    1  UNL1        0.1675
     11 F         138.0403  140.4137  170.2649 F       1  UNL1       -0.2018
     12 C         139.3081  140.1394  168.0139 C.ar    1  UNL1        0.0365
     13 C         139.7167  138.6826  163.6147 C.ar    1  UNL1        0.0895
     14 C         138.6725  139.4034  162.8147 C.ar    1  UNL1        0.1176
     15 N         138.6536  139.2780  161.3201 N.ar    1  UNL1       -0.2139
     16 C         139.6790  138.4318  160.6255 C.ar    1  UNL1        0.2240
     17 CL        139.6600  138.3064  159.1308 Cl      1  UNL1       -0.0410
     18 N         140.7232  137.7110  161.4254 N.ar    1  UNL1       -0.2139
     19 C         140.7421  137.8365  162.9200 C.ar    1  UNL1        0.1176
@<TRIPOS>BOND
     1     1     2    2
     2     2     3   am
     3     3    13    1
     4    13    14   ar
     5    14    15   ar
     6    15    16   ar
     7    16    17    1
     8    16    18   ar
     9    18    19   ar
    10     2     5    1
    11     5     6   ar
    12     6     7   ar
    13     7     8   ar
    14     8     9    1
    15     8    10   ar
    16    10    11    1
    17    10    12   ar
    18    19    13   ar
    19    12     5   ar
    20     3     4    1
