@<TRIPOS>MOLECULE
*****
 30 32 0 0 0
SMALL
GASTEIGER

@<TRIPOS>ATOM
      1 C         141.4390  142.3638  162.7822 C.2     1  UNL1        0.2451
      2 O         142.6209  142.4473  163.7019 O.2     1  UNL1       -0.2729
      3 N         140.6088  141.1151  162.7392 N.am    1  UNL1       -0.2988
      4 H         139.8331  141.0603  162.1355 H       1  UNL1        0.1498
      5 N         140.1512  144.6469  162.2583 N.am    1  UNL1       -0.2650
      6 C         140.0950  145.5895  161.0928 C.2     1  UNL1        0.2493
      7 O         139.2807  146.8467  161.0142 O.2     1  UNL1       -0.2699
      8 C         140.9962  145.0542  160.0197 C.ar    1  UNL1        0.0516
      9 C         141.3376  145.5619  158.6502 C.ar    1  UNL1        0.0043
     10 C         142.2922  144.7960  157.7829 C.ar    1  UNL1        0.0001
     11 C         142.9053  143.5225  158.2852 C.ar    1  UNL1       -0.0003
     12 C         142.5639  143.0149  159.6547 C.ar    1  UNL1       -0.0021
     13 C         141.6093  143.7807  160.5220 C.ar    1  UNL1        0.0089
     14 C         141.0871  143.5290  161.9055 C.3     1  UNL1        0.1751
     15 C         139.4029  144.7959  163.5497 C.3     1  UNL1        0.1106
     16 C         138.0139  144.2449  163.6796 C.3     1  UNL1        0.1269
     17 N         137.3351  141.5867  162.4659 N.1     1  UNL1       -0.1958
     18 C         137.6745  142.9158  163.0728 C.1     1  UNL1        0.0750
     19 C         140.9608  139.9500  163.6159 C.3     1  UNL1        0.1164
     20 C         140.4827  139.9096  165.0371 C.ar    1  UNL1       -0.0024
     21 C         141.4078  140.3014  166.1509 C.ar    1  UNL1        0.0005
     22 C         140.9297  140.2610  167.5722 C.ar    1  UNL1        0.0369
     23 C         139.5266  139.8287  167.8796 C.ar    1  UNL1        0.1468
     24 C         138.6016  139.4369  166.7656 C.ar    1  UNL1        0.0369
     25 C         139.0796  139.4773  165.3444 C.ar    1  UNL1        0.0005
     26 O         139.0485  139.7883  169.3007 O.3     1  UNL1       -0.4045
     27 C         139.8240  140.4942  170.3732 C.3     1  UNL1        0.5753
     28 F         140.5996  141.2002  171.4457 F       1  UNL1       -0.1328
     29 F         138.9590  141.7074  170.2002 F       1  UNL1       -0.1328
     30 F         140.6891  139.2811  170.5462 F       1  UNL1       -0.1328
@<TRIPOS>BOND
     1    17    18    3
     2    18    16    1
     3    16    15    1
     4    15     5    1
     5     5     6   am
     6     6     7    2
     7     6     8    1
     8     8     9   ar
     9     9    10   ar
    10    10    11   ar
    11    11    12   ar
    12    12    13   ar
    13    13    14    1
    14    14     1    1
    15     1     2    2
    16     1     3   am
    17     3    19    1
    18    19    20    1
    19    20    21   ar
    20    21    22   ar
    21    22    23   ar
    22    23    26    1
    23    26    27    1
    24    27    28    1
    25    27    29    1
    26    27    30    1
    27    23    24   ar
    28    24    25   ar
    29    14     5    1
    30    25    20   ar
    31    13     8   ar
    32     3     4    1
@<TRIPOS>MOLECULE
*****
 30 32 0 0 0
SMALL
GASTEIGER

@<TRIPOS>ATOM
      1 C         142.2164  142.5300  162.8615 C.2     1  UNL1        0.2451
      2 O         141.6528  141.1401  162.8470 O.2     1  UNL1       -0.2729
      3 N         143.4022  142.8494  163.7230 N.am    1  UNL1       -0.2988
      4 H         143.7723  143.7617  163.7325 H       1  UNL1        0.1498
      5 N         140.5358  144.5681  162.4537 N.am    1  UNL1       -0.2650
      6 C         140.2091  145.4569  161.2904 C.2     1  UNL1        0.2493
      7 O         139.2023  146.5689  161.2859 O.2     1  UNL1       -0.2699
      8 C         141.0659  145.0387  160.1324 C.ar    1  UNL1        0.0516
      9 C         141.1770  145.5543  158.7283 C.ar    1  UNL1        0.0043
     10 C         142.1444  144.9226  157.7717 C.ar    1  UNL1        0.0001
     11 C         143.0007  143.7752  158.2193 C.ar    1  UNL1       -0.0003
     12 C         142.8895  143.2596  159.6235 C.ar    1  UNL1       -0.0021
     13 C         141.9221  143.8913  160.5800 C.ar    1  UNL1        0.0089
     14 C         141.5945  143.6005  162.0146 C.3     1  UNL1        0.1751
     15 C         139.9131  144.6351  163.8167 C.3     1  UNL1        0.1106
     16 C         138.4719  144.2627  164.0020 C.3     1  UNL1        0.1269
     17 N         137.3109  141.9549  162.4768 N.1     1  UNL1       -0.1958
     18 C         137.8914  143.1088  163.2394 C.1     1  UNL1        0.0750
     19 C         144.0242  141.7789  164.5698 C.3     1  UNL1        0.1164
     20 C         143.3073  141.2746  165.7870 C.ar    1  UNL1       -0.0024
     21 C         143.0635  139.8045  165.9585 C.ar    1  UNL1        0.0005
     22 C         142.3466  139.3000  167.1758 C.ar    1  UNL1        0.0369
     23 C         141.8735  140.2657  168.2216 C.ar    1  UNL1        0.1468
     24 C         142.1173  141.7358  168.0500 C.ar    1  UNL1        0.0369
     25 C         142.8342  142.2402  166.8328 C.ar    1  UNL1        0.0005
     26 O         141.1566  139.7614  169.4388 O.3     1  UNL1       -0.4045
     27 C         139.8027  140.3032  169.7900 C.3     1  UNL1        0.5753
     28 F         138.4488  140.8450  170.1413 F       1  UNL1       -0.1328
     29 F         139.2760  139.8483  168.4613 F       1  UNL1       -0.1328
     30 F         140.3295  140.7581  171.1188 F       1  UNL1       -0.1328
@<TRIPOS>BOND
     1    17    18    3
     2    18    16    1
     3    16    15    1
     4    15     5    1
     5     5     6   am
     6     6     7    2
     7     6     8    1
     8     8     9   ar
     9     9    10   ar
    10    10    11   ar
    11    11    12   ar
    12    12    13   ar
    13    13    14    1
    14    14     1    1
    15     1     2    2
    16     1     3   am
    17     3    19    1
    18    19    20    1
    19    20    21   ar
    20    21    22   ar
    21    22    23   ar
    22    23    26    1
    23    26    27    1
    24    27    28    1
    25    27    29    1
    26    27    30    1
    27    23    24   ar
    28    24    25   ar
    29    14     5    1
    30    25    20   ar
    31    13     8   ar
    32     3     4    1
@<TRIPOS>MOLECULE
*****
 30 32 0 0 0
SMALL
GASTEIGER

@<TRIPOS>ATOM
      1 C         142.8103  141.1879  166.6079 C.2     1  UNL1        0.2451
      2 O         143.5985  140.1854  165.8182 O.2     1  UNL1       -0.2729
      3 N         143.1779  142.6412  166.5544 N.am    1  UNL1       -0.2988
      4 H         142.6606  143.2993  167.0727 H       1  UNL1        0.1498
      5 N         141.5536  140.8528  168.9431 N.am    1  UNL1       -0.2650
      6 C         140.2333  140.2788  169.3643 C.2     1  UNL1        0.2493
      7 O         139.7185  140.1906  170.7704 O.2     1  UNL1       -0.2699
      8 C         139.5182  139.8085  168.1325 C.ar    1  UNL1        0.0516
      9 C         138.1807  139.1589  167.9348 C.ar    1  UNL1        0.0043
     10 C         137.7215  138.7925  166.5546 C.ar    1  UNL1        0.0001
     11 C         138.5998  139.0758  165.3721 C.ar    1  UNL1       -0.0003
     12 C         139.9373  139.7254  165.5698 C.ar    1  UNL1       -0.0021
     13 C         140.3965  140.0918  166.9500 C.ar    1  UNL1        0.0089
     14 C         141.6544  140.7372  167.4510 C.3     1  UNL1        0.1751
     15 C         142.5909  141.4394  169.8541 C.3     1  UNL1        0.1106
     16 C         142.6165  142.9175  170.1081 C.3     1  UNL1        0.1269
     17 N         140.0546  144.4780  170.1436 N.1     1  UNL1       -0.1958
     18 C         141.3355  143.6977  170.1259 C.1     1  UNL1        0.0750
     19 C         144.3338  143.0919  165.7112 C.3     1  UNL1        0.1164
     20 C         144.2297  143.0562  164.2153 C.ar    1  UNL1       -0.0024
     21 C         143.1729  143.8603  163.5177 C.ar    1  UNL1        0.0005
     22 C         143.0687  143.8247  162.0217 C.ar    1  UNL1        0.0369
     23 C         144.0213  142.9850  161.2233 C.ar    1  UNL1        0.1468
     24 C         145.0781  142.1809  161.9210 C.ar    1  UNL1        0.0369
     25 C         145.1823  142.2165  163.4170 C.ar    1  UNL1        0.0005
     26 O         143.9172  142.9493  159.7274 O.3     1  UNL1       -0.4045
     27 C         144.0840  141.6510  158.9948 C.3     1  UNL1        0.5753
     28 F         144.2507  140.3528  158.2622 F       1  UNL1       -0.1328
     29 F         145.2684  142.2141  158.2667 F       1  UNL1       -0.1328
     30 F         142.8996  141.0880  159.7230 F       1  UNL1       -0.1328
@<TRIPOS>BOND
     1    17    18    3
     2    18    16    1
     3    16    15    1
     4    15     5    1
     5     5     6   am
     6     6     7    2
     7     6     8    1
     8     8     9   ar
     9     9    10   ar
    10    10    11   ar
    11    11    12   ar
    12    12    13   ar
    13    13    14    1
    14    14     1    1
    15     1     2    2
    16     1     3   am
    17     3    19    1
    18    19    20    1
    19    20    21   ar
    20    21    22   ar
    21    22    23   ar
    22    23    26    1
    23    26    27    1
    24    27    28    1
    25    27    29    1
    26    27    30    1
    27    23    24   ar
    28    24    25   ar
    29    14     5    1
    30    25    20   ar
    31    13     8   ar
    32     3     4    1
@<TRIPOS>MOLECULE
*****
 30 32 0 0 0
SMALL
GASTEIGER

@<TRIPOS>ATOM
      1 C         140.9584  138.1902  162.6816 C.2     1  UNL1        0.2451
      2 O         140.8300  136.7691  163.1439 O.2     1  UNL1       -0.2729
      3 N         141.7122  139.1845  163.5142 N.am    1  UNL1       -0.2988
      4 H         141.7965  140.1173  163.2108 H       1  UNL1        0.1498
      5 N         138.9417  139.1500  161.2130 N.am    1  UNL1       -0.2650
      6 C         138.7380  139.4483  159.7572 C.2     1  UNL1        0.2493
      7 O         137.4883  139.9986  159.1363 O.2     1  UNL1       -0.2699
      8 C         140.0035  139.0997  159.0311 C.ar    1  UNL1        0.0516
      9 C         140.3855  139.1837  157.5830 C.ar    1  UNL1        0.0043
     10 C         141.7533  138.7540  157.1421 C.ar    1  UNL1        0.0001
     11 C         142.7390  138.2402  158.1493 C.ar    1  UNL1       -0.0003
     12 C         142.3570  138.1562  159.5973 C.ar    1  UNL1       -0.0021
     13 C         140.9892  138.5860  160.0382 C.ar    1  UNL1        0.0089
     14 C         140.3330  138.6171  161.3867 C.3     1  UNL1        0.1751
     15 C         137.9314  139.3496  162.3037 C.3     1  UNL1        0.1106
     16 C         137.8631  140.6590  163.0323 C.3     1  UNL1        0.1269
     17 N         137.9439  143.2355  161.4977 N.1     1  UNL1       -0.1958
     18 C         137.9035  141.9473  162.2650 C.1     1  UNL1        0.0750
     19 C         142.3375  138.7576  164.8091 C.3     1  UNL1        0.1164
     20 C         141.9624  139.4483  166.0867 C.ar    1  UNL1       -0.0024
     21 C         140.7549  140.3370  166.1322 C.ar    1  UNL1        0.0005
     22 C         140.3797  141.0277  167.4098 C.ar    1  UNL1        0.0369
     23 C         141.2120  140.8297  168.6418 C.ar    1  UNL1        0.1468
     24 C         142.4196  139.9410  168.5963 C.ar    1  UNL1        0.0369
     25 C         142.7948  139.2503  167.3187 C.ar    1  UNL1        0.0005
     26 O         140.8369  141.5204  169.9194 O.3     1  UNL1       -0.4045
     27 C         140.6249  143.0053  169.9349 C.3     1  UNL1        0.5753
     28 F         140.4129  144.4901  169.9504 F       1  UNL1       -0.1328
     29 F         139.2645  142.8048  170.5342 F       1  UNL1       -0.1328
     30 F         141.9853  143.2057  169.3356 F       1  UNL1       -0.1328
@<TRIPOS>BOND
     1    17    18    3
     2    18    16    1
     3    16    15    1
     4    15     5    1
     5     5     6   am
     6     6     7    2
     7     6     8    1
     8     8     9   ar
     9     9    10   ar
    10    10    11   ar
    11    11    12   ar
    12    12    13   ar
    13    13    14    1
    14    14     1    1
    15     1     2    2
    16     1     3   am
    17     3    19    1
    18    19    20    1
    19    20    21   ar
    20    21    22   ar
    21    22    23   ar
    22    23    26    1
    23    26    27    1
    24    27    28    1
    25    27    29    1
    26    27    30    1
    27    23    24   ar
    28    24    25   ar
    29    14     5    1
    30    25    20   ar
    31    13     8   ar
    32     3     4    1
@<TRIPOS>MOLECULE
*****
 30 32 0 0 0
SMALL
GASTEIGER

@<TRIPOS>ATOM
      1 C         141.7007  140.2045  164.9839 C.2     1  UNL1        0.2451
      2 O         141.6377  141.4205  164.1080 O.2     1  UNL1       -0.2729
      3 N         142.8786  139.2795  164.8992 N.am    1  UNL1       -0.2988
      4 H         142.9200  138.4813  165.4742 H       1  UNL1        0.1498
      5 N         139.3733  139.0776  165.6606 N.am    1  UNL1       -0.2650
      6 C         138.5261  139.0548  166.8982 C.2     1  UNL1        0.2493
      7 O         137.2192  138.3363  167.0590 O.2     1  UNL1       -0.2699
      8 C         139.2152  139.8765  167.9470 C.ar    1  UNL1        0.0516
      9 C         138.8480  140.2101  169.3625 C.ar    1  UNL1        0.0043
     10 C         139.7538  141.0743  170.1886 C.ar    1  UNL1        0.0001
     11 C         141.0270  141.6050  169.5991 C.ar    1  UNL1       -0.0003
     12 C         141.3942  141.2715  168.1835 C.ar    1  UNL1       -0.0021
     13 C         140.4884  140.4072  167.3575 C.ar    1  UNL1        0.0089
     14 C         140.5860  139.9135  165.9444 C.3     1  UNL1        0.1751
     15 C         139.0623  138.3860  164.3664 C.3     1  UNL1        0.1106
     16 C         138.9197  139.1846  163.1047 C.3     1  UNL1        0.1269
     17 N         137.0722  141.5469  163.0253 N.1     1  UNL1       -0.1958
     18 C         137.9959  140.3657  163.0650 C.1     1  UNL1        0.0750
     19 C         143.9933  139.5705  163.9387 C.3     1  UNL1        0.1164
     20 C         143.8024  139.3242  162.4715 C.ar    1  UNL1       -0.0024
     21 C         144.0748  140.4211  161.4852 C.ar    1  UNL1        0.0005
     22 C         143.8839  140.1748  160.0178 C.ar    1  UNL1        0.0369
     23 C         143.4206  138.8317  159.5368 C.ar    1  UNL1        0.1468
     24 C         143.1482  137.7349  160.5232 C.ar    1  UNL1        0.0369
     25 C         143.3391  137.9811  161.9904 C.ar    1  UNL1        0.0005
     26 O         143.2297  138.5854  158.0696 O.3     1  UNL1       -0.4045
     27 C         142.0504  137.7924  157.5895 C.3     1  UNL1        0.5753
     28 F         140.8710  136.9995  157.1094 F       1  UNL1       -0.1328
     29 F         141.1361  138.9155  157.9805 F       1  UNL1       -0.1328
     30 F         142.9646  136.6694  157.1985 F       1  UNL1       -0.1328
@<TRIPOS>BOND
     1    17    18    3
     2    18    16    1
     3    16    15    1
     4    15     5    1
     5     5     6   am
     6     6     7    2
     7     6     8    1
     8     8     9   ar
     9     9    10   ar
    10    10    11   ar
    11    11    12   ar
    12    12    13   ar
    13    13    14    1
    14    14     1    1
    15     1     2    2
    16     1     3   am
    17     3    19    1
    18    19    20    1
    19    20    21   ar
    20    21    22   ar
    21    22    23   ar
    22    23    26    1
    23    26    27    1
    24    27    28    1
    25    27    29    1
    26    27    30    1
    27    23    24   ar
    28    24    25   ar
    29    14     5    1
    30    25    20   ar
    31    13     8   ar
    32     3     4    1
@<TRIPOS>MOLECULE
*****
 30 32 0 0 0
SMALL
GASTEIGER

@<TRIPOS>ATOM
      1 C         141.5024  141.5543  165.4008 C.2     1  UNL1        0.2451
      2 O         142.1832  140.6988  164.3739 O.2     1  UNL1       -0.2729
      3 N         141.6613  143.0453  165.3594 N.am    1  UNL1       -0.2988
      4 H         141.2144  143.6069  166.0334 H       1  UNL1        0.1498
      5 N         139.5039  139.9930  166.2455 N.am    1  UNL1       -0.2650
      6 C         138.9595  139.5997  167.5867 C.2     1  UNL1        0.2493
      7 O         137.7969  138.6844  167.8324 O.2     1  UNL1       -0.2699
      8 C         139.7819  140.2824  168.6392 C.ar    1  UNL1        0.0516
      9 C         139.7082  140.2670  170.1373 C.ar    1  UNL1        0.0043
     10 C         140.6871  141.0669  170.9446 C.ar    1  UNL1        0.0001
     11 C         141.7398  141.8822  170.2538 C.ar    1  UNL1       -0.0003
     12 C         141.8135  141.8976  168.7557 C.ar    1  UNL1       -0.0021
     13 C         140.8346  141.0977  167.9484 C.ar    1  UNL1        0.0089
     14 C         140.6628  140.9188  166.4691 C.3     1  UNL1        0.1751
     15 C         138.9813  139.5401  164.9145 C.3     1  UNL1        0.1106
     16 C         139.0957  138.0989  164.5147 C.3     1  UNL1        0.1269
     17 N         141.0773  137.2767  162.4178 N.1     1  UNL1       -0.1958
     18 C         140.0865  137.6878  163.4663 C.1     1  UNL1        0.0750
     19 C         142.5009  143.6808  164.2911 C.3     1  UNL1        0.1164
     20 C         141.8568  144.1960  163.0384 C.ar    1  UNL1       -0.0024
     21 C         140.7706  145.2271  163.1230 C.ar    1  UNL1        0.0005
     22 C         140.1264  145.7425  161.8702 C.ar    1  UNL1        0.0369
     23 C         140.5683  145.2267  160.5328 C.ar    1  UNL1        0.1468
     24 C         141.6545  144.1956  160.4482 C.ar    1  UNL1        0.0369
     25 C         142.2987  143.6803  161.7009 C.ar    1  UNL1        0.0005
     26 O         139.9241  145.7420  159.2800 O.3     1  UNL1       -0.4045
     27 C         140.3160  145.1753  157.9476 C.3     1  UNL1        0.5753
     28 F         140.7079  144.6087  156.6151 F       1  UNL1       -0.1328
     29 F         139.3054  144.0798  158.1163 F       1  UNL1       -0.1328
     30 F         141.3266  146.2709  157.7788 F       1  UNL1       -0.1328
@<TRIPOS>BOND
     1    17    18    3
     2    18    16    1
     3    16    15    1
     4    15     5    1
     5     5     6   am
     6     6     7    2
     7     6     8    1
     8     8     9   ar
     9     9    10   ar
    10    10    11   ar
    11    11    12   ar
    12    12    13   ar
    13    13    14    1
    14    14     1    1
    15     1     2    2
    16     1     3   am
    17     3    19    1
    18    19    20    1
    19    20    21   ar
    20    21    22   ar
    21    22    23   ar
    22    23    26    1
    23    26    27    1
    24    27    28    1
    25    27    29    1
    26    27    30    1
    27    23    24   ar
    28    24    25   ar
    29    14     5    1
    30    25    20   ar
    31    13     8   ar
    32     3     4    1
@<TRIPOS>MOLECULE
*****
 30 32 0 0 0
SMALL
GASTEIGER

@<TRIPOS>ATOM
      1 C         138.2588  141.3586  162.7021 C.2     1  UNL1        0.2451
      2 O         136.8136  141.5461  163.0569 O.2     1  UNL1       -0.2729
      3 N         139.1893  140.6938  163.6729 N.am    1  UNL1       -0.2988
      4 H         140.1379  140.5707  163.4401 H       1  UNL1        0.1498
      5 N         138.8439  141.0273  160.1150 N.am    1  UNL1       -0.2650
      6 C         139.4225  141.8971  159.0386 C.2     1  UNL1        0.2493
      7 O         139.6702  141.4920  157.6157 O.2     1  UNL1       -0.2699
      8 C         139.7100  143.2432  159.6348 C.ar    1  UNL1        0.0516
      9 C         140.2850  144.4984  159.0487 C.ar    1  UNL1        0.0043
     10 C         140.4591  145.7158  159.9075 C.ar    1  UNL1        0.0001
     11 C         140.0582  145.6779  161.3524 C.ar    1  UNL1       -0.0003
     12 C         139.4831  144.4227  161.9386 C.ar    1  UNL1       -0.0021
     13 C         139.3090  143.2053  161.0797 C.ar    1  UNL1        0.0089
     14 C         138.7738  141.8358  161.3765 C.3     1  UNL1        0.1751
     15 C         138.4114  139.5996  159.9575 C.3     1  UNL1        0.1106
     16 C         139.3949  138.4891  160.1799 C.3     1  UNL1        0.1269
     17 N         139.9662  137.5264  162.9632 N.1     1  UNL1       -0.1958
     18 C         139.6806  138.0078  161.5716 C.1     1  UNL1        0.0750
     19 C         138.6743  140.2166  164.9985 C.3     1  UNL1        0.1164
     20 C         139.3999  140.5803  166.2599 C.ar    1  UNL1       -0.0024
     21 C         140.3458  141.7445  166.2719 C.ar    1  UNL1        0.0005
     22 C         141.0715  142.1082  167.5333 C.ar    1  UNL1        0.0369
     23 C         140.8513  141.3079  168.7827 C.ar    1  UNL1        0.1468
     24 C         139.9053  140.1438  168.7706 C.ar    1  UNL1        0.0369
     25 C         139.1797  139.7800  167.5093 C.ar    1  UNL1        0.0005
     26 O         141.5769  141.6716  170.0441 O.3     1  UNL1       -0.4045
     27 C         143.0058  142.1240  169.9835 C.3     1  UNL1        0.5753
     28 F         144.4346  142.5764  169.9229 F       1  UNL1       -0.1328
     29 F         143.4492  140.7009  169.8153 F       1  UNL1       -0.1328
     30 F         142.5623  143.5471  170.1517 F       1  UNL1       -0.1328
@<TRIPOS>BOND
     1    17    18    3
     2    18    16    1
     3    16    15    1
     4    15     5    1
     5     5     6   am
     6     6     7    2
     7     6     8    1
     8     8     9   ar
     9     9    10   ar
    10    10    11   ar
    11    11    12   ar
    12    12    13   ar
    13    13    14    1
    14    14     1    1
    15     1     2    2
    16     1     3   am
    17     3    19    1
    18    19    20    1
    19    20    21   ar
    20    21    22   ar
    21    22    23   ar
    22    23    26    1
    23    26    27    1
    24    27    28    1
    25    27    29    1
    26    27    30    1
    27    23    24   ar
    28    24    25   ar
    29    14     5    1
    30    25    20   ar
    31    13     8   ar
    32     3     4    1
@<TRIPOS>MOLECULE
*****
 30 32 0 0 0
SMALL
GASTEIGER

@<TRIPOS>ATOM
      1 C         142.7509  141.4864  163.1144 C.2     1  UNL1        0.2451
      2 O         143.9254  141.6987  164.0228 O.2     1  UNL1       -0.2729
      3 N         141.8926  140.2662  163.2709 N.am    1  UNL1       -0.2988
      4 H         141.1216  140.1268  162.6747 H       1  UNL1        0.1498
      5 N         143.0511  142.5567  160.6834 N.am    1  UNL1       -0.2650
      6 C         142.4436  143.7177  159.9533 C.2     1  UNL1        0.2493
      7 O         142.7707  144.1480  158.5541 O.2     1  UNL1       -0.2699
      8 C         141.4517  144.3729  160.8681 C.ar    1  UNL1        0.0516
      9 C         140.5528  145.5602  160.6888 C.ar    1  UNL1        0.0043
     10 C         139.6484  145.9915  161.8049 C.ar    1  UNL1        0.0001
     11 C         139.6427  145.2354  163.1004 C.ar    1  UNL1       -0.0003
     12 C         140.5416  144.0480  163.2797 C.ar    1  UNL1       -0.0021
     13 C         141.4460  143.6168  162.1636 C.ar    1  UNL1        0.0089
     14 C         142.4345  142.4943  162.0494 C.3     1  UNL1        0.1751
     15 C         144.0922  141.6221  160.1425 C.3     1  UNL1        0.1106
     16 C         143.6958  140.2623  159.6491 C.3     1  UNL1        0.1269
     17 N         144.0554  137.8627  161.4134 N.1     1  UNL1       -0.1958
     18 C         143.8756  139.0625  160.5312 C.1     1  UNL1        0.0750
     19 C         142.2089  139.2583  164.3358 C.3     1  UNL1        0.1164
     20 C         141.7823  139.5051  165.7525 C.ar    1  UNL1       -0.0024
     21 C         142.7667  139.3387  166.8720 C.ar    1  UNL1        0.0005
     22 C         142.3400  139.5856  168.2888 C.ar    1  UNL1        0.0369
     23 C         140.9291  139.9989  168.5860 C.ar    1  UNL1        0.1468
     24 C         139.9447  140.1653  167.4664 C.ar    1  UNL1        0.0369
     25 C         140.3713  139.9184  166.0497 C.ar    1  UNL1        0.0005
     26 O         140.5024  140.2458  170.0026 O.3     1  UNL1       -0.4045
     27 C         139.8685  141.5524  170.3780 C.3     1  UNL1        0.5753
     28 F         139.2345  142.8590  170.7534 F       1  UNL1       -0.1328
     29 F         138.5094  140.9528  170.1696 F       1  UNL1       -0.1328
     30 F         141.2276  142.1519  170.5865 F       1  UNL1       -0.1328
@<TRIPOS>BOND
     1    17    18    3
     2    18    16    1
     3    16    15    1
     4    15     5    1
     5     5     6   am
     6     6     7    2
     7     6     8    1
     8     8     9   ar
     9     9    10   ar
    10    10    11   ar
    11    11    12   ar
    12    12    13   ar
    13    13    14    1
    14    14     1    1
    15     1     2    2
    16     1     3   am
    17     3    19    1
    18    19    20    1
    19    20    21   ar
    20    21    22   ar
    21    22    23   ar
    22    23    26    1
    23    26    27    1
    24    27    28    1
    25    27    29    1
    26    27    30    1
    27    23    24   ar
    28    24    25   ar
    29    14     5    1
    30    25    20   ar
    31    13     8   ar
    32     3     4    1
@<TRIPOS>MOLECULE
*****
 30 32 0 0 0
SMALL
GASTEIGER

@<TRIPOS>ATOM
      1 C         140.3430  143.2761  165.4809 C.2     1  UNL1        0.2451
      2 O         139.3026  144.3226  165.2123 O.2     1  UNL1       -0.2729
      3 N         141.7101  143.4052  164.8770 N.am    1  UNL1       -0.2988
      4 H         142.3930  142.7184  165.0533 H       1  UNL1        0.1498
      5 N         139.3673  140.8242  165.9065 N.am    1  UNL1       -0.2650
      6 C         139.2315  139.9296  167.1029 C.2     1  UNL1        0.2493
      7 O         138.6351  138.5533  167.1115 O.2     1  UNL1       -0.2699
      8 C         139.7969  140.6529  168.2891 C.ar    1  UNL1        0.0516
      9 C         139.9326  140.2633  169.7312 C.ar    1  UNL1        0.0043
     10 C         140.5535  141.2152  170.7101 C.ar    1  UNL1        0.0001
     11 C         141.0386  142.5569  170.2469 C.ar    1  UNL1       -0.0003
     12 C         140.9030  142.9466  168.8048 C.ar    1  UNL1       -0.0021
     13 C         140.2821  141.9946  167.8259 C.ar    1  UNL1        0.0089
     14 C         140.0166  142.1004  166.3534 C.3     1  UNL1        0.1751
     15 C         138.9305  140.4995  164.5087 C.3     1  UNL1        0.1106
     16 C         137.6529  141.0719  163.9702 C.3     1  UNL1        0.1269
     17 N         137.7346  143.1624  161.8201 N.1     1  UNL1       -0.1958
     18 C         137.6937  142.1172  162.8951 C.1     1  UNL1        0.0750
     19 C         142.0366  144.5809  164.0045 C.3     1  UNL1        0.1164
     20 C         141.5362  144.6278  162.5912 C.ar    1  UNL1       -0.0024
     21 C         142.0277  143.6268  161.5880 C.ar    1  UNL1        0.0005
     22 C         141.5273  143.6737  160.1747 C.ar    1  UNL1        0.0369
     23 C         140.5355  144.7216  159.7645 C.ar    1  UNL1        0.1468
     24 C         140.0441  145.7226  160.7678 C.ar    1  UNL1        0.0369
     25 C         140.5444  145.6757  162.1811 C.ar    1  UNL1        0.0005
     26 O         140.0351  144.7685  158.3513 O.3     1  UNL1       -0.4045
     27 C         140.7107  145.6529  157.3455 C.3     1  UNL1        0.5753
     28 F         141.3862  146.5373  156.3398 F       1  UNL1       -0.1328
     29 F         141.6878  144.5570  157.0382 F       1  UNL1       -0.1328
     30 F         139.7336  146.7487  157.6528 F       1  UNL1       -0.1328
@<TRIPOS>BOND
     1    17    18    3
     2    18    16    1
     3    16    15    1
     4    15     5    1
     5     5     6   am
     6     6     7    2
     7     6     8    1
     8     8     9   ar
     9     9    10   ar
    10    10    11   ar
    11    11    12   ar
    12    12    13   ar
    13    13    14    1
    14    14     1    1
    15     1     2    2
    16     1     3   am
    17     3    19    1
    18    19    20    1
    19    20    21   ar
    20    21    22   ar
    21    22    23   ar
    22    23    26    1
    23    26    27    1
    24    27    28    1
    25    27    29    1
    26    27    30    1
    27    23    24   ar
    28    24    25   ar
    29    14     5    1
    30    25    20   ar
    31    13     8   ar
    32     3     4    1
