@<TRIPOS>MOLECULE
*****
 21 23 0 0 0
SMALL
GASTEIGER

@<TRIPOS>ATOM
      1 N         138.8778  139.4927  165.0928 N.am    1  UNL1       -0.2035
      2 C         138.2175  138.8559  166.2797 C.3     1  UNL1        0.1350
      3 C         138.8339  139.4345  167.5188 C.3     1  UNL1        0.1229
      4 N         139.8751  140.4288  167.0978 N.am    1  UNL1       -0.2403
      5 C         139.9023  140.4647  165.5984 C.2     1  UNL1        0.3244
      6 O         140.7968  141.3221  164.7531 O.2     1  UNL1       -0.2507
      7 C         140.7377  141.2440  168.0150 C.ar    1  UNL1        0.0562
      8 C         142.1476  140.8160  168.2960 C.ar    1  UNL1        0.0150
      9 C         143.0102  141.6312  169.2132 C.ar    1  UNL1        0.0021
     10 C         142.4628  142.8745  169.8495 C.ar    1  UNL1        0.0115
     11 C         141.0530  143.3025  169.5685 C.ar    1  UNL1        0.0589
     12 CL        140.5056  144.5457  170.2048 Cl      1  UNL1       -0.0822
     13 C         140.1904  142.4872  168.6513 C.ar    1  UNL1        0.0263
     14 C         137.8294  140.1140  162.7139 C.3     1  UNL1        0.1056
     15 C         137.7475  139.4324  161.3802 C.3     1  UNL1        0.0217
     16 C         138.4355  138.1045  161.4953 C.3     1  UNL1        0.0206
     17 C         138.9427  137.9654  162.9001 C.3     1  UNL1        0.0923
     18 N         138.5681  139.2074  163.6531 N.3     1  UNL1       -0.2003
     19 C         137.2708  141.4651  163.0493 C.3     1  UNL1        0.1598
     20 C         137.9424  143.9586  162.7640 C.3     1  UNL1        0.1742
     21 O         137.5621  142.6386  162.1615 O.3     1  UNL1       -0.3496
@<TRIPOS>BOND
     1    20    21    1
     2    21    19    1
     3    14    19    1
     4    14    15    1
     5    15    16    1
     6    16    17    1
     7    17    18    1
     8    18     1    1
     9     1     2    1
    10     2     3    1
    11     3     4    1
    12     4     7    1
    13     7     8   ar
    14     8     9   ar
    15     9    10   ar
    16    10    11   ar
    17    11    12    1
    18    11    13   ar
    19     4     5   am
    20     5     6    2
    21    18    14    1
    22     5     1   am
    23    13     7   ar
@<TRIPOS>MOLECULE
*****
 21 23 0 0 0
SMALL
GASTEIGER

@<TRIPOS>ATOM
      1 N         140.4391  140.7068  163.9073 N.am    1  UNL1       -0.2035
      2 C         141.5817  141.5746  163.4696 C.3     1  UNL1        0.1350
      3 C         142.1224  142.2748  164.6809 C.3     1  UNL1        0.1229
      4 N         141.3141  141.8397  165.8672 N.am    1  UNL1       -0.2403
      5 C         140.2738  140.8706  165.3891 C.2     1  UNL1        0.3244
      6 O         139.2482  140.1856  166.2428 O.2     1  UNL1       -0.2507
      7 C         141.5115  142.2939  167.2832 C.ar    1  UNL1        0.0562
      8 C         140.3691  142.9011  168.0422 C.ar    1  UNL1        0.0150
      9 C         140.5665  143.3552  169.4580 C.ar    1  UNL1        0.0021
     10 C         141.9063  143.2023  170.1149 C.ar    1  UNL1        0.0115
     11 C         143.0487  142.5952  169.3559 C.ar    1  UNL1        0.0589
     12 CL        144.3886  142.4422  170.0127 Cl      1  UNL1       -0.0822
     13 C         142.8513  142.1410  167.9400 C.ar    1  UNL1        0.0263
     14 C         138.1898  140.0863  162.6033 C.3     1  UNL1        0.1056
     15 C         137.7543  138.9565  161.7180 C.3     1  UNL1        0.0217
     16 C         138.9032  138.0012  161.5866 C.3     1  UNL1        0.0206
     17 C         140.0488  138.5406  162.3907 C.3     1  UNL1        0.0923
     18 N         139.6079  139.8292  163.0190 N.3     1  UNL1       -0.2003
     19 C         137.3540  141.2660  163.0027 C.3     1  UNL1        0.1598
     20 C         137.9395  143.7935  162.8650 C.3     1  UNL1        0.1742
     21 O         137.4310  142.5406  162.2156 O.3     1  UNL1       -0.3496
@<TRIPOS>BOND
     1    20    21    1
     2    21    19    1
     3    14    19    1
     4    14    15    1
     5    15    16    1
     6    16    17    1
     7    17    18    1
     8    18     1    1
     9     1     2    1
    10     2     3    1
    11     3     4    1
    12     4     7    1
    13     7     8   ar
    14     8     9   ar
    15     9    10   ar
    16    10    11   ar
    17    11    12    1
    18    11    13   ar
    19     4     5   am
    20     5     6    2
    21    18    14    1
    22     5     1   am
    23    13     7   ar
@<TRIPOS>MOLECULE
*****
 21 23 0 0 0
SMALL
GASTEIGER

@<TRIPOS>ATOM
      1 N         139.1450  139.4317  164.8451 N.am    1  UNL1       -0.2035
      2 C         138.3318  138.8983  165.9873 C.3     1  UNL1        0.1350
      3 C         138.8626  139.4996  167.2548 C.3     1  UNL1        0.1229
      4 N         140.0038  140.4046  166.8961 N.am    1  UNL1       -0.2403
      5 C         140.1783  140.3626  165.4069 C.2     1  UNL1        0.3244
      6 O         141.2057  141.1188  164.6179 O.2     1  UNL1       -0.2507
      7 C         140.8261  141.2103  167.8578 C.ar    1  UNL1        0.0562
      8 C         142.2354  140.7997  168.1665 C.ar    1  UNL1        0.0150
      9 C         143.0577  141.6053  169.1281 C.ar    1  UNL1        0.0021
     10 C         142.4707  142.8215  169.7811 C.ar    1  UNL1        0.0115
     11 C         141.0614  143.2320  169.4725 C.ar    1  UNL1        0.0589
     12 CL        140.4744  144.4481  170.1255 Cl      1  UNL1       -0.0822
     13 C         140.2391  142.4264  168.5108 C.ar    1  UNL1        0.0263
     14 C         139.7564  138.0935  162.6135 C.3     1  UNL1        0.1056
     15 C         139.2311  138.0779  161.2086 C.3     1  UNL1        0.0217
     16 C         138.1077  139.0681  161.1227 C.3     1  UNL1        0.0206
     17 C         137.9387  139.6957  162.4745 C.3     1  UNL1        0.0923
     18 N         138.9577  139.0934  163.3958 N.3     1  UNL1       -0.2003
     19 C         140.8828  137.2563  163.1431 C.3     1  UNL1        0.1598
     20 C         142.7663  138.8493  162.3279 C.3     1  UNL1        0.1742
     21 O         142.2437  137.8597  163.3267 O.3     1  UNL1       -0.3496
@<TRIPOS>BOND
     1    20    21    1
     2    21    19    1
     3    14    19    1
     4    14    15    1
     5    15    16    1
     6    16    17    1
     7    17    18    1
     8    18     1    1
     9     1     2    1
    10     2     3    1
    11     3     4    1
    12     4     7    1
    13     7     8   ar
    14     8     9   ar
    15     9    10   ar
    16    10    11   ar
    17    11    12    1
    18    11    13   ar
    19     4     5   am
    20     5     6    2
    21    18    14    1
    22     5     1   am
    23    13     7   ar
@<TRIPOS>MOLECULE
*****
 21 23 0 0 0
SMALL
GASTEIGER

@<TRIPOS>ATOM
      1 N         140.1638  140.7989  164.0434 N.am    1  UNL1       -0.2035
      2 C         141.1415  141.8194  163.5406 C.3     1  UNL1        0.1350
      3 C         141.7101  142.5405  164.7266 C.3     1  UNL1        0.1229
      4 N         141.0839  141.9657  165.9625 N.am    1  UNL1       -0.2403
      5 C         140.1282  140.8894  165.5403 C.2     1  UNL1        0.3244
      6 O         139.2850  140.0507  166.4544 O.2     1  UNL1       -0.2507
      7 C         141.3641  142.3924  167.3730 C.ar    1  UNL1        0.0562
      8 C         140.2818  143.0303  168.1926 C.ar    1  UNL1        0.0150
      9 C         140.5620  143.4569  169.6031 C.ar    1  UNL1        0.0021
     10 C         141.9245  143.2456  170.1939 C.ar    1  UNL1        0.0115
     11 C         143.0067  142.6077  169.3743 C.ar    1  UNL1        0.0589
     12 CL        144.3692  142.3964  169.9652 Cl      1  UNL1       -0.0822
     13 C         142.7265  142.1811  167.9639 C.ar    1  UNL1        0.0263
     14 C         139.5890  138.3767  163.0703 C.3     1  UNL1        0.1056
     15 C         138.5605  137.8301  162.1251 C.3     1  UNL1        0.0217
     16 C         137.6984  138.9695  161.6686 C.3     1  UNL1        0.0206
     17 C         138.1941  140.2204  162.3317 C.3     1  UNL1        0.0923
     18 N         139.3625  139.8539  163.1979 N.3     1  UNL1       -0.2003
     19 C         140.6565  137.5850  163.7657 C.3     1  UNL1        0.1598
     20 C         142.9714  138.6342  164.3046 C.3     1  UNL1        0.1742
     21 O         142.0988  137.8001  163.4142 O.3     1  UNL1       -0.3496
@<TRIPOS>BOND
     1    20    21    1
     2    21    19    1
     3    14    19    1
     4    14    15    1
     5    15    16    1
     6    16    17    1
     7    17    18    1
     8    18     1    1
     9     1     2    1
    10     2     3    1
    11     3     4    1
    12     4     7    1
    13     7     8   ar
    14     8     9   ar
    15     9    10   ar
    16    10    11   ar
    17    11    12    1
    18    11    13   ar
    19     4     5   am
    20     5     6    2
    21    18    14    1
    22     5     1   am
    23    13     7   ar
@<TRIPOS>MOLECULE
*****
 21 23 0 0 0
SMALL
GASTEIGER

@<TRIPOS>ATOM
      1 N         141.4389  140.0361  163.6951 N.am    1  UNL1       -0.2035
      2 C         140.5781  141.2070  163.3235 C.3     1  UNL1        0.1350
      3 C         140.0165  141.7889  164.5868 C.3     1  UNL1        0.1229
      4 N         140.5302  140.9778  165.7392 N.am    1  UNL1       -0.2403
      5 C         141.4093  139.8945  165.1881 C.2     1  UNL1        0.3244
      6 O         142.1319  138.8525  165.9894 O.2     1  UNL1       -0.2507
      7 C         140.2194  141.2092  167.1883 C.ar    1  UNL1        0.0562
      8 C         139.5610  140.1302  167.9958 C.ar    1  UNL1        0.0150
      9 C         139.2502  140.3617  169.4449 C.ar    1  UNL1        0.0021
     10 C         139.5979  141.6722  170.0864 C.ar    1  UNL1        0.0115
     11 C         140.2563  142.7513  169.2790 C.ar    1  UNL1        0.0589
     12 CL        140.6040  144.0618  169.9205 Cl      1  UNL1       -0.0822
     13 C         140.5671  142.5198  167.8299 C.ar    1  UNL1        0.0263
     14 C         143.6796  138.9378  162.7372 C.3     1  UNL1        0.1056
     15 C         144.0035  137.9938  161.6174 C.3     1  UNL1        0.0217
     16 C         142.7203  137.6332  160.9295 C.3     1  UNL1        0.0206
     17 C         141.6034  138.3544  161.6240 C.3     1  UNL1        0.0923
     18 N         142.1963  139.1607  162.7413 N.3     1  UNL1       -0.2003
     19 C         144.6660  139.5513  163.6863 C.3     1  UNL1        0.1598
     20 C         144.8832  141.6263  162.1381 C.3     1  UNL1        0.1742
     21 O         145.3346  140.8482  163.3384 O.3     1  UNL1       -0.3496
@<TRIPOS>BOND
     1    20    21    1
     2    21    19    1
     3    14    19    1
     4    14    15    1
     5    15    16    1
     6    16    17    1
     7    17    18    1
     8    18     1    1
     9     1     2    1
    10     2     3    1
    11     3     4    1
    12     4     7    1
    13     7     8   ar
    14     8     9   ar
    15     9    10   ar
    16    10    11   ar
    17    11    12    1
    18    11    13   ar
    19     4     5   am
    20     5     6    2
    21    18    14    1
    22     5     1   am
    23    13     7   ar
@<TRIPOS>MOLECULE
*****
 21 23 0 0 0
SMALL
GASTEIGER

@<TRIPOS>ATOM
      1 N         141.6049  140.1078  163.5696 N.am    1  UNL1       -0.2035
      2 C         140.8810  141.3757  163.2254 C.3     1  UNL1        0.1350
      3 C         140.3210  141.9487  164.4935 C.3     1  UNL1        0.1229
      4 N         140.6988  141.0350  165.6215 N.am    1  UNL1       -0.2403
      5 C         141.4923  139.8973  165.0505 C.2     1  UNL1        0.3244
      6 O         142.0715  138.7504  165.8245 O.2     1  UNL1       -0.2507
      7 C         140.3452  141.2255  167.0668 C.ar    1  UNL1        0.0562
      8 C         139.6891  140.1142  167.8311 C.ar    1  UNL1        0.0150
      9 C         139.3355  140.3047  169.2763 C.ar    1  UNL1        0.0021
     10 C         139.6381  141.6066  169.9571 C.ar    1  UNL1        0.0115
     11 C         140.2942  142.7180  169.1928 C.ar    1  UNL1        0.0589
     12 CL        140.5968  144.0199  169.8736 Cl      1  UNL1       -0.0822
     13 C         140.6478  142.5274  167.7476 C.ar    1  UNL1        0.0263
     14 C         141.6796  138.4321  161.4885 C.3     1  UNL1        0.1056
     15 C         142.7593  137.6714  160.7775 C.3     1  UNL1        0.0217
     16 C         144.0634  137.9776  161.4524 C.3     1  UNL1        0.0206
     17 C         143.7897  138.9276  162.5805 C.3     1  UNL1        0.0923
     18 N         142.3164  139.2085  162.6028 N.3     1  UNL1       -0.2003
     19 C         140.2194  138.4188  161.1454 C.3     1  UNL1        0.1598
     20 C         138.4604  138.5287  163.0543 C.3     1  UNL1        0.1742
     21 O         139.2422  137.7316  162.0525 O.3     1  UNL1       -0.3496
@<TRIPOS>BOND
     1    20    21    1
     2    21    19    1
     3    14    19    1
     4    14    15    1
     5    15    16    1
     6    16    17    1
     7    17    18    1
     8    18     1    1
     9     1     2    1
    10     2     3    1
    11     3     4    1
    12     4     7    1
    13     7     8   ar
    14     8     9   ar
    15     9    10   ar
    16    10    11   ar
    17    11    12    1
    18    11    13   ar
    19     4     5   am
    20     5     6    2
    21    18    14    1
    22     5     1   am
    23    13     7   ar
@<TRIPOS>MOLECULE
*****
 21 23 0 0 0
SMALL
GASTEIGER

@<TRIPOS>ATOM
      1 N         142.8342  138.8936  164.7555 N.am    1  UNL1       -0.2035
      2 C         143.6235  138.2472  165.8552 C.3     1  UNL1        0.1350
      3 C         143.1547  138.8194  167.1602 C.3     1  UNL1        0.1229
      4 N         142.0758  139.8193  166.8670 N.am    1  UNL1       -0.2403
      5 C         141.8777  139.8652  165.3808 C.2     1  UNL1        0.3244
      6 O         140.8956  140.7307  164.6486 O.2     1  UNL1       -0.2507
      7 C         141.3265  140.6310  167.8818 C.ar    1  UNL1        0.0562
      8 C         141.7517  142.0385  168.1787 C.ar    1  UNL1        0.0150
      9 C         141.0024  142.8500  169.1935 C.ar    1  UNL1        0.0021
     10 C         139.8279  142.2542  169.9114 C.ar    1  UNL1        0.0115
     11 C         139.4026  140.8467  169.6145 C.ar    1  UNL1        0.0589
     12 CL        138.2281  140.2508  170.3324 Cl      1  UNL1       -0.0822
     13 C         140.1520  140.0351  168.5997 C.ar    1  UNL1        0.0263
     14 C         141.9472  137.9708  162.4090 C.3     1  UNL1        0.1056
     15 C         142.5076  137.8923  161.0198 C.3     1  UNL1        0.0217
     16 C         143.8833  138.4899  161.0405 C.3     1  UNL1        0.0206
     17 C         144.1730  138.9377  162.4424 C.3     1  UNL1        0.0923
     18 N         142.9765  138.6169  163.2881 N.3     1  UNL1       -0.2003
     19 C         140.5949  137.4879  162.8427 C.3     1  UNL1        0.1598
     20 C         138.1929  138.0508  162.0282 C.3     1  UNL1        0.1742
     21 O         139.4196  138.4193  162.8089 O.3     1  UNL1       -0.3496
@<TRIPOS>BOND
     1    20    21    1
     2    21    19    1
     3    14    19    1
     4    14    15    1
     5    15    16    1
     6    16    17    1
     7    17    18    1
     8    18     1    1
     9     1     2    1
    10     2     3    1
    11     3     4    1
    12     4     7    1
    13     7     8   ar
    14     8     9   ar
    15     9    10   ar
    16    10    11   ar
    17    11    12    1
    18    11    13   ar
    19     4     5   am
    20     5     6    2
    21    18    14    1
    22     5     1   am
    23    13     7   ar
@<TRIPOS>MOLECULE
*****
 21 23 0 0 0
SMALL
GASTEIGER

@<TRIPOS>ATOM
      1 N         143.0582  139.2052  164.7407 N.am    1  UNL1       -0.2035
      2 C         143.6885  138.3888  165.8299 C.3     1  UNL1        0.1350
      3 C         143.1421  138.8666  167.1426 C.3     1  UNL1        0.1229
      4 N         142.1741  139.9783  166.8647 N.am    1  UNL1       -0.2403
      5 C         142.1223  140.1875  165.3802 C.2     1  UNL1        0.3244
      6 O         141.2821  141.2012  164.6615 O.2     1  UNL1       -0.2507
      7 C         141.3948  140.7460  167.8910 C.ar    1  UNL1        0.0562
      8 C         141.7858  142.1536  168.2312 C.ar    1  UNL1        0.0150
      9 C         141.0065  142.9212  169.2575 C.ar    1  UNL1        0.0021
     10 C         139.8361  142.2813  169.9436 C.ar    1  UNL1        0.0115
     11 C         139.4451  140.8737  169.6034 C.ar    1  UNL1        0.0589
     12 CL        138.2747  140.2338  170.2895 Cl      1  UNL1       -0.0822
     13 C         140.2244  140.1061  168.5771 C.ar    1  UNL1        0.0263
     14 C         144.2106  139.9423  162.4443 C.3     1  UNL1        0.1056
     15 C         144.1754  139.4408  161.0311 C.3     1  UNL1        0.0217
     16 C         143.2612  138.2526  160.9835 C.3     1  UNL1        0.0206
     17 C         142.7314  138.0197  162.3674 C.3     1  UNL1        0.0923
     18 N         143.3182  139.0640  163.2702 N.3     1  UNL1       -0.2003
     19 C         144.9998  141.1161  162.9440 C.3     1  UNL1        0.1598
     20 C         144.5963  142.9336  164.7561 C.3     1  UNL1        0.1742
     21 O         144.2906  142.3543  163.4067 O.3     1  UNL1       -0.3496
@<TRIPOS>BOND
     1    20    21    1
     2    21    19    1
     3    14    19    1
     4    14    15    1
     5    15    16    1
     6    16    17    1
     7    17    18    1
     8    18     1    1
     9     1     2    1
    10     2     3    1
    11     3     4    1
    12     4     7    1
    13     7     8   ar
    14     8     9   ar
    15     9    10   ar
    16    10    11   ar
    17    11    12    1
    18    11    13   ar
    19     4     5   am
    20     5     6    2
    21    18    14    1
    22     5     1   am
    23    13     7   ar
@<TRIPOS>MOLECULE
*****
 21 23 0 0 0
SMALL
GASTEIGER

@<TRIPOS>ATOM
      1 N         143.0366  139.4713  165.0924 N.am    1  UNL1       -0.2035
      2 C         143.6189  138.5902  166.1577 C.3     1  UNL1        0.1350
      3 C         142.9704  138.9493  167.4617 C.3     1  UNL1        0.1229
      4 N         141.9875  140.0523  167.2025 N.am    1  UNL1       -0.2403
      5 C         142.0284  140.3749  165.7382 C.2     1  UNL1        0.3244
      6 O         141.2056  141.4180  165.0418 O.2     1  UNL1       -0.2507
      7 C         141.1165  140.7161  168.2276 C.ar    1  UNL1        0.0562
      8 C         140.0421  139.9314  168.9203 C.ar    1  UNL1        0.0150
      9 C         139.1711  140.5953  169.9453 C.ar    1  UNL1        0.0021
     10 C         139.3747  142.0438  170.2777 C.ar    1  UNL1        0.0115
     11 C         140.4491  142.8284  169.5850 C.ar    1  UNL1        0.0589
     12 CL        140.6526  144.2769  169.9174 Cl      1  UNL1       -0.0822
     13 C         141.3200  142.1646  168.5600 C.ar    1  UNL1        0.0263
     14 C         144.3033  140.4256  162.9407 C.3     1  UNL1        0.1056
     15 C         144.3839  140.0313  161.4957 C.3     1  UNL1        0.0217
     16 C         143.5295  138.8143  161.2990 C.3     1  UNL1        0.0206
     17 C         142.9208  138.4564  162.6223 C.3     1  UNL1        0.0923
     18 N         143.3990  139.4522  163.6370 N.3     1  UNL1       -0.2003
     19 C         145.0039  141.5890  163.5776 C.3     1  UNL1        0.1598
     20 C         144.3541  143.3866  165.3372 C.3     1  UNL1        0.1742
     21 O         144.2282  142.8160  163.9558 O.3     1  UNL1       -0.3496
@<TRIPOS>BOND
     1    20    21    1
     2    21    19    1
     3    14    19    1
     4    14    15    1
     5    15    16    1
     6    16    17    1
     7    17    18    1
     8    18     1    1
     9     1     2    1
    10     2     3    1
    11     3     4    1
    12     4     7    1
    13     7     8   ar
    14     8     9   ar
    15     9    10   ar
    16    10    11   ar
    17    11    12    1
    18    11    13   ar
    19     4     5   am
    20     5     6    2
    21    18    14    1
    22     5     1   am
    23    13     7   ar
