@<TRIPOS>MOLECULE
*****
 27 29 0 0 0
SMALL
GASTEIGER

@<TRIPOS>ATOM
      1 C         142.5292  140.2760  164.3998 C.ar    1  UNL1        0.1517
      2 C         143.6688  139.3439  164.6873 C.ar    1  UNL1        0.0382
      3 C         143.7914  138.7035  166.0382 C.ar    1  UNL1        0.0032
      4 C         142.7744  138.9951  167.1015 C.ar    1  UNL1        0.0014
      5 C         141.6349  139.9271  166.8140 C.ar    1  UNL1        0.0170
      6 C         141.5123  140.5675  165.4632 C.ar    1  UNL1        0.0823
      7 C         140.6178  140.2187  167.8774 C.2     1  UNL1        0.0125
      8 C         140.9261  141.2128  168.9575 C.2     1  UNL1        0.0873
      9 S         142.2012  141.9891  169.1036 S.3     1  UNL1       -0.0254
     10 C         142.0766  142.8613  170.3176 C.2     1  UNL1        0.2832
     11 O         143.1208  143.8050  170.8362 O.2     1  UNL1       -0.2622
     12 N         140.7243  142.6241  170.9218 N.am    1  UNL1       -0.2425
     13 C         140.0133  141.6053  170.0813 C.2     1  UNL1        0.2583
     14 O         138.6320  141.0724  170.3222 O.2     1  UNL1       -0.2692
     15 H         140.3663  143.0604  171.7285 H       1  UNL1        0.1587
     16 N         140.3726  141.4996  165.1757 N.pl3   1  UNL1       -0.3038
     17 C         140.4360  142.9259  165.6356 C.3     1  UNL1        0.0910
     18 C         139.2963  143.8580  165.3481 C.3     1  UNL1        0.0228
     19 C         138.0934  143.3636  164.6008 C.3     1  UNL1        0.0190
     20 C         138.0300  141.9372  164.1409 C.3     1  UNL1        0.0709
     21 N         136.8271  141.4428  163.3936 N.3     1  UNL1       -0.3208
     22 C         139.1696  141.0052  164.4284 C.3     1  UNL1        0.1062
     23 H         136.1560  142.2037  163.2880 H       1  UNL1        0.1189
     24 H         136.3952  140.6781  163.9123 H       1  UNL1        0.1189
     25 O         142.4066  140.9164  163.0490 O.3     1  UNL1       -0.4742
     26 C         143.7787  142.9847  163.8167 C.3     1  UNL1        0.0512
     27 C         143.2254  142.1284  162.7164 C.3     1  UNL1        0.2056
@<TRIPOS>BOND
     1    26    27    1
     2    27    25    1
     3    25     1    1
     4     1     2   ar
     5     2     3   ar
     6     3     4   ar
     7     4     5   ar
     8     5     7    1
     9     7     8    2
    10     8     9    1
    11     9    10    1
    12    10    11    2
    13    10    12   am
    14    12    13   am
    15    13    14    2
    16     5     6   ar
    17     6    16    1
    18    16    17    1
    19    17    18    1
    20    18    19    1
    21    19    20    1
    22    20    21    1
    23    20    22    1
    24     6     1   ar
    25    22    16    1
    26    13     8    1
    27    12    15    1
    28    21    23    1
    29    21    24    1
@<TRIPOS>MOLECULE
*****
 27 29 0 0 0
SMALL
GASTEIGER

@<TRIPOS>ATOM
      1 C         141.9820  139.9920  164.3969 C.ar    1  UNL1        0.1517
      2 C         142.7521  138.7628  164.7789 C.ar    1  UNL1        0.0382
      3 C         143.2388  138.5901  166.1872 C.ar    1  UNL1        0.0032
      4 C         142.9554  139.6466  167.2135 C.ar    1  UNL1        0.0014
      5 C         142.1853  140.8759  166.8315 C.ar    1  UNL1        0.0170
      6 C         141.6986  141.0485  165.4232 C.ar    1  UNL1        0.0823
      7 C         141.9019  141.9325  167.8578 C.2     1  UNL1        0.0125
      8 C         140.8048  141.7291  168.8604 C.2     1  UNL1        0.0873
      9 S         139.9124  140.5276  168.9592 S.3     1  UNL1       -0.0254
     10 C         138.9636  140.7474  170.1000 C.2     1  UNL1        0.2832
     11 O         137.8961  139.7967  170.5547 O.2     1  UNL1       -0.2622
     12 N         139.2697  142.0849  170.7063 N.am    1  UNL1       -0.2425
     13 C         140.4076  142.6916  169.9402 C.2     1  UNL1        0.2583
     14 O         141.0377  144.0264  170.2070 O.2     1  UNL1       -0.2692
     15 H         138.8052  142.4929  171.4725 H       1  UNL1        0.1587
     16 N         140.9285  142.2778  165.0412 N.pl3   1  UNL1       -0.3038
     17 C         139.4442  142.3284  165.2513 C.3     1  UNL1        0.0910
     18 C         138.6741  143.5577  164.8694 C.3     1  UNL1        0.0228
     19 C         139.3883  144.7364  164.2773 C.3     1  UNL1        0.0190
     20 C         140.8728  144.6857  164.0672 C.3     1  UNL1        0.0709
     21 N         141.5870  145.8644  163.4752 N.3     1  UNL1       -0.3208
     22 C         141.6428  143.4565  164.4492 C.3     1  UNL1        0.1062
     23 H         140.9145  146.6053  163.2774 H       1  UNL1        0.1189
     24 H         142.0475  145.5833  162.6096 H       1  UNL1        0.1189
     25 O         141.4953  140.1647  162.9886 O.3     1  UNL1       -0.4742
     26 C         139.3209  138.8687  163.5736 C.3     1  UNL1        0.0512
     27 C         140.1355  139.6660  162.5986 C.3     1  UNL1        0.2056
@<TRIPOS>BOND
     1    26    27    1
     2    27    25    1
     3    25     1    1
     4     1     2   ar
     5     2     3   ar
     6     3     4   ar
     7     4     5   ar
     8     5     7    1
     9     7     8    2
    10     8     9    1
    11     9    10    1
    12    10    11    2
    13    10    12   am
    14    12    13   am
    15    13    14    2
    16     5     6   ar
    17     6    16    1
    18    16    17    1
    19    17    18    1
    20    18    19    1
    21    19    20    1
    22    20    21    1
    23    20    22    1
    24     6     1   ar
    25    22    16    1
    26    13     8    1
    27    12    15    1
    28    21    23    1
    29    21    24    1
@<TRIPOS>MOLECULE
*****
 27 29 0 0 0
SMALL
GASTEIGER

@<TRIPOS>ATOM
      1 C         141.1707  142.0403  164.2008 C.ar    1  UNL1        0.1517
      2 C         142.0536  143.2514  164.1422 C.ar    1  UNL1        0.0382
      3 C         143.1485  143.4310  165.1517 C.ar    1  UNL1        0.0032
      4 C         143.3605  142.3993  166.2197 C.ar    1  UNL1        0.0014
      5 C         142.4775  141.1882  166.2783 C.ar    1  UNL1        0.0170
      6 C         141.3826  141.0087  165.2689 C.ar    1  UNL1        0.0823
      7 C         142.6894  140.1565  167.3464 C.2     1  UNL1        0.0125
      8 C         142.1693  140.3947  168.7331 C.2     1  UNL1        0.0873
      9 S         141.4228  141.6098  169.1980 S.3     1  UNL1       -0.0254
     10 C         141.0965  141.4258  170.6505 C.2     1  UNL1        0.2832
     11 O         140.3555  142.3997  171.5179 O.2     1  UNL1       -0.2622
     12 N         141.6415  140.0970  171.0833 N.am    1  UNL1       -0.2425
     13 C         142.3045  139.4598  169.8982 C.2     1  UNL1        0.2583
     14 O         142.9835  138.1224  169.8813 O.2     1  UNL1       -0.2692
     15 H         141.5755  139.7109  171.9865 H       1  UNL1        0.1587
     16 N         140.4997  139.7974  165.3275 N.pl3   1  UNL1       -0.3038
     17 C         140.7591  138.6353  164.4153 C.3     1  UNL1        0.0910
     18 C         139.8761  137.4241  164.4740 C.3     1  UNL1        0.0228
     19 C         138.7338  137.3750  165.4448 C.3     1  UNL1        0.0190
     20 C         138.4744  138.5372  166.3571 C.3     1  UNL1        0.0709
     21 N         137.3320  138.4882  167.3279 N.3     1  UNL1       -0.3208
     22 C         139.3573  139.7484  166.2984 C.3     1  UNL1        0.1062
     23 H         136.8423  137.5986  167.2321 H       1  UNL1        0.1189
     24 H         136.6871  139.2541  167.1331 H       1  UNL1        0.1189
     25 O         140.0758  141.8607  163.1914 O.3     1  UNL1       -0.4742
     26 C         138.4397  143.1975  164.7033 C.3     1  UNL1        0.0512
     27 C         138.6885  142.3432  163.4958 C.3     1  UNL1        0.2056
@<TRIPOS>BOND
     1    26    27    1
     2    27    25    1
     3    25     1    1
     4     1     2   ar
     5     2     3   ar
     6     3     4   ar
     7     4     5   ar
     8     5     7    1
     9     7     8    2
    10     8     9    1
    11     9    10    1
    12    10    11    2
    13    10    12   am
    14    12    13   am
    15    13    14    2
    16     5     6   ar
    17     6    16    1
    18    16    17    1
    19    17    18    1
    20    18    19    1
    21    19    20    1
    22    20    21    1
    23    20    22    1
    24     6     1   ar
    25    22    16    1
    26    13     8    1
    27    12    15    1
    28    21    23    1
    29    21    24    1
@<TRIPOS>MOLECULE
*****
 27 29 0 0 0
SMALL
GASTEIGER

@<TRIPOS>ATOM
      1 C         143.0995  141.6168  163.6348 C.ar    1  UNL1        0.1517
      2 C         144.2267  140.6275  163.6139 C.ar    1  UNL1        0.0382
      3 C         144.0143  139.2373  164.1356 C.ar    1  UNL1        0.0032
      4 C         142.6746  138.8364  164.6783 C.ar    1  UNL1        0.0014
      5 C         141.5474  139.8258  164.6992 C.ar    1  UNL1        0.0170
      6 C         141.7598  141.2160  164.1775 C.ar    1  UNL1        0.0823
      7 C         140.2076  139.4250  165.2419 C.2     1  UNL1        0.0125
      8 C         139.9004  139.6162  166.6976 C.2     1  UNL1        0.0873
      9 S         140.8278  140.1923  167.7262 S.3     1  UNL1       -0.0254
     10 C         140.1124  140.1970  169.0446 C.2     1  UNL1        0.2832
     11 O         140.6689  140.6886  170.3480 O.2     1  UNL1       -0.2622
     12 N         138.7428  139.6238  168.8309 N.am    1  UNL1       -0.2425
     13 C         138.6118  139.2648  167.3803 C.2     1  UNL1        0.2583
     14 O         137.4042  138.6606  166.7272 O.2     1  UNL1       -0.2692
     15 H         138.0513  139.5042  169.5213 H       1  UNL1        0.1587
     16 N         140.6325  142.2054  164.1984 N.pl3   1  UNL1       -0.3038
     17 C         140.4561  143.1166  165.3768 C.3     1  UNL1        0.0910
     18 C         139.3288  144.1060  165.3977 C.3     1  UNL1        0.0228
     19 C         138.3779  144.1840  164.2403 C.3     1  UNL1        0.0190
     20 C         138.5543  143.2728  163.0619 C.3     1  UNL1        0.0709
     21 N         137.6034  143.3508  161.9045 N.3     1  UNL1       -0.3208
     22 C         139.6816  142.2835  163.0410 C.3     1  UNL1        0.1062
     23 H         136.9053  144.0720  162.0861 H       1  UNL1        0.1189
     24 H         137.1390  142.4506  161.7847 H       1  UNL1        0.1189
     25 O         143.3119  143.0070  163.1130 O.3     1  UNL1       -0.4742
     26 C         144.5020  143.7567  165.2974 C.3     1  UNL1        0.0512
     27 C         143.7535  144.0979  164.0431 C.3     1  UNL1        0.2056
@<TRIPOS>BOND
     1    26    27    1
     2    27    25    1
     3    25     1    1
     4     1     2   ar
     5     2     3   ar
     6     3     4   ar
     7     4     5   ar
     8     5     7    1
     9     7     8    2
    10     8     9    1
    11     9    10    1
    12    10    11    2
    13    10    12   am
    14    12    13   am
    15    13    14    2
    16     5     6   ar
    17     6    16    1
    18    16    17    1
    19    17    18    1
    20    18    19    1
    21    19    20    1
    22    20    21    1
    23    20    22    1
    24     6     1   ar
    25    22    16    1
    26    13     8    1
    27    12    15    1
    28    21    23    1
    29    21    24    1
@<TRIPOS>MOLECULE
*****
 27 29 0 0 0
SMALL
GASTEIGER

@<TRIPOS>ATOM
      1 C         139.6824  141.0057  163.8589 C.ar    1  UNL1        0.1517
      2 C         138.7106  139.9845  164.3714 C.ar    1  UNL1        0.0382
      3 C         138.8285  139.4764  165.7778 C.ar    1  UNL1        0.0032
      4 C         139.9182  139.9896  166.6717 C.ar    1  UNL1        0.0014
      5 C         140.8900  141.0108  166.1593 C.ar    1  UNL1        0.0170
      6 C         140.7721  141.5189  164.7529 C.ar    1  UNL1        0.0823
      7 C         141.9797  141.5240  167.0533 C.2     1  UNL1        0.0125
      8 C         141.6355  142.1479  168.3732 C.2     1  UNL1        0.0873
      9 S         140.2544  142.3268  168.9304 S.3     1  UNL1       -0.0254
     10 C         140.3772  142.9920  170.2692 C.2     1  UNL1        0.2832
     11 O         139.2422  143.3602  171.1782 O.2     1  UNL1       -0.2622
     12 N         141.8342  143.2243  170.5394 N.am    1  UNL1       -0.2425
     13 C         142.6119  142.7027  169.3676 C.2     1  UNL1        0.2583
     14 O         144.1040  142.7308  169.2167 O.2     1  UNL1       -0.2692
     15 H         142.2136  143.6453  171.3445 H       1  UNL1        0.1587
     16 N         141.7440  142.5401  164.2405 N.pl3   1  UNL1       -0.3038
     17 C         141.4705  144.0015  164.4390 C.3     1  UNL1        0.0910
     18 C         142.4424  145.0228  163.9266 C.3     1  UNL1        0.0228
     19 C         143.6877  144.5826  163.2156 C.3     1  UNL1        0.0190
     20 C         143.9611  143.1211  163.0171 C.3     1  UNL1        0.0709
     21 N         145.2064  142.6808  162.3061 N.3     1  UNL1       -0.3208
     22 C         142.9892  142.0999  163.5295 C.3     1  UNL1        0.1062
     23 H         145.7472  143.5000  162.0287 H       1  UNL1        0.1189
     24 H         144.9526  142.1442  161.4766 H       1  UNL1        0.1189
     25 O         139.5645  141.5138  162.4525 O.3     1  UNL1       -0.4742
     26 C         137.7603  143.2862  163.0469 C.3     1  UNL1        0.0512
     27 C         138.9002  142.8316  162.1844 C.3     1  UNL1        0.2056
@<TRIPOS>BOND
     1    26    27    1
     2    27    25    1
     3    25     1    1
     4     1     2   ar
     5     2     3   ar
     6     3     4   ar
     7     4     5   ar
     8     5     7    1
     9     7     8    2
    10     8     9    1
    11     9    10    1
    12    10    11    2
    13    10    12   am
    14    12    13   am
    15    13    14    2
    16     5     6   ar
    17     6    16    1
    18    16    17    1
    19    17    18    1
    20    18    19    1
    21    19    20    1
    22    20    21    1
    23    20    22    1
    24     6     1   ar
    25    22    16    1
    26    13     8    1
    27    12    15    1
    28    21    23    1
    29    21    24    1
@<TRIPOS>MOLECULE
*****
 27 29 0 0 0
SMALL
GASTEIGER

@<TRIPOS>ATOM
      1 C         143.2471  141.3368  163.9713 C.ar    1  UNL1        0.1517
      2 C         144.4194  142.2426  164.2060 C.ar    1  UNL1        0.0382
      3 C         144.5444  142.9871  165.5022 C.ar    1  UNL1        0.0032
      4 C         143.4971  142.8256  166.5638 C.ar    1  UNL1        0.0014
      5 C         142.3248  141.9198  166.3291 C.ar    1  UNL1        0.0170
      6 C         142.1998  141.1754  165.0329 C.ar    1  UNL1        0.0823
      7 C         141.2774  141.7583  167.3907 C.2     1  UNL1        0.0125
      8 C         141.4473  140.7204  168.4602 C.2     1  UNL1        0.0873
      9 S         142.6049  139.7763  168.5967 S.3     1  UNL1       -0.0254
     10 C         142.3624  138.9167  169.8018 C.2     1  UNL1        0.2832
     11 O         143.2684  137.8343  170.3094 O.2     1  UNL1       -0.2622
     12 N         141.0550  139.3295  170.4101 N.am    1  UNL1       -0.2425
     13 C         140.4894  140.4442  169.5810 C.2     1  UNL1        0.2583
     14 O         139.1934  141.1576  169.8291 O.2     1  UNL1       -0.2692
     15 H         140.6408  138.9376  171.2127 H       1  UNL1        0.1587
     16 N         141.0274  140.2695  164.7983 N.pl3   1  UNL1       -0.3038
     17 C         141.1253  138.8123  165.1403 C.3     1  UNL1        0.0910
     18 C         139.9529  137.9065  164.9057 C.3     1  UNL1        0.0228
     19 C         138.6827  138.4578  164.3290 C.3     1  UNL1        0.0190
     20 C         138.5848  139.9151  163.9870 C.3     1  UNL1        0.0709
     21 N         137.3146  140.4665  163.4103 N.3     1  UNL1       -0.3208
     22 C         139.7572  140.8209  164.2216 C.3     1  UNL1        0.1062
     23 H         136.6290  139.7168  163.3194 H       1  UNL1        0.1189
     24 H         137.5041  140.8672  162.4917 H       1  UNL1        0.1189
     25 O         143.1221  140.5924  162.6751 O.3     1  UNL1       -0.4742
     26 C         142.9946  138.0770  162.0374 C.3     1  UNL1        0.0512
     27 C         143.7888  139.2591  162.5086 C.3     1  UNL1        0.2056
@<TRIPOS>BOND
     1    26    27    1
     2    27    25    1
     3    25     1    1
     4     1     2   ar
     5     2     3   ar
     6     3     4   ar
     7     4     5   ar
     8     5     7    1
     9     7     8    2
    10     8     9    1
    11     9    10    1
    12    10    11    2
    13    10    12   am
    14    12    13   am
    15    13    14    2
    16     5     6   ar
    17     6    16    1
    18    16    17    1
    19    17    18    1
    20    18    19    1
    21    19    20    1
    22    20    21    1
    23    20    22    1
    24     6     1   ar
    25    22    16    1
    26    13     8    1
    27    12    15    1
    28    21    23    1
    29    21    24    1
@<TRIPOS>MOLECULE
*****
 27 29 0 0 0
SMALL
GASTEIGER

@<TRIPOS>ATOM
      1 C         143.3510  140.5778  164.7260 C.ar    1  UNL1        0.1517
      2 C         144.5528  141.4490  164.5105 C.ar    1  UNL1        0.0382
      3 C         144.4009  142.9409  164.4741 C.ar    1  UNL1        0.0032
      4 C         143.0472  143.5615  164.6532 C.ar    1  UNL1        0.0014
      5 C         141.8453  142.6903  164.8687 C.ar    1  UNL1        0.0170
      6 C         141.9972  141.1985  164.9051 C.ar    1  UNL1        0.0823
      7 C         140.4915  143.3110  165.0478 C.2     1  UNL1        0.0125
      8 C         139.5737  143.4612  163.8710 C.2     1  UNL1        0.0873
      9 S         139.8702  143.0400  162.4622 S.3     1  UNL1       -0.0254
     10 C         138.6780  143.3776  161.6167 C.2     1  UNL1        0.2832
     11 O         138.5429  143.1290  160.1437 O.2     1  UNL1       -0.2622
     12 N         137.6446  144.0074  162.5030 N.am    1  UNL1       -0.2425
     13 C         138.1982  144.0591  163.8962 C.2     1  UNL1        0.2583
     14 O         137.4990  144.6117  165.1028 O.2     1  UNL1       -0.2692
     15 H         136.7587  144.3302  162.2200 H       1  UNL1        0.1587
     16 N         140.7953  140.3273  165.1207 N.pl3   1  UNL1       -0.3038
     17 C         140.1333  140.2820  166.4659 C.3     1  UNL1        0.0910
     18 C         138.9314  139.4108  166.6815 C.3     1  UNL1        0.0228
     19 C         138.3914  138.5849  165.5517 C.3     1  UNL1        0.0190
     20 C         139.0534  138.6302  164.2064 C.3     1  UNL1        0.0709
     21 N         138.5135  137.8043  163.0766 N.3     1  UNL1       -0.3208
     22 C         140.2553  139.5014  163.9909 C.3     1  UNL1        0.1062
     23 H         137.7012  137.2779  163.3983 H       1  UNL1        0.1189
     24 H         139.2328  137.1566  162.7549 H       1  UNL1        0.1189
     25 O         143.5028  139.0860  164.7624 O.3     1  UNL1       -0.4742
     26 C         143.1847  138.7463  167.3184 C.3     1  UNL1        0.0512
     27 C         143.8903  138.4025  166.0402 C.3     1  UNL1        0.2056
@<TRIPOS>BOND
     1    26    27    1
     2    27    25    1
     3    25     1    1
     4     1     2   ar
     5     2     3   ar
     6     3     4   ar
     7     4     5   ar
     8     5     7    1
     9     7     8    2
    10     8     9    1
    11     9    10    1
    12    10    11    2
    13    10    12   am
    14    12    13   am
    15    13    14    2
    16     5     6   ar
    17     6    16    1
    18    16    17    1
    19    17    18    1
    20    18    19    1
    21    19    20    1
    22    20    21    1
    23    20    22    1
    24     6     1   ar
    25    22    16    1
    26    13     8    1
    27    12    15    1
    28    21    23    1
    29    21    24    1
@<TRIPOS>MOLECULE
*****
 27 29 0 0 0
SMALL
GASTEIGER

@<TRIPOS>ATOM
      1 C         141.1149  143.9463  163.4712 C.ar    1  UNL1        0.1517
      2 C         142.1151  145.0521  163.6345 C.ar    1  UNL1        0.0382
      3 C         143.4565  144.7665  164.2420 C.ar    1  UNL1        0.0032
      4 C         143.7977  143.3751  164.6862 C.ar    1  UNL1        0.0014
      5 C         142.7975  142.2692  164.5230 C.ar    1  UNL1        0.0170
      6 C         141.4561  142.5548  163.9155 C.ar    1  UNL1        0.0823
      7 C         143.1388  140.8777  164.9672 C.2     1  UNL1        0.0125
      8 C         142.9393  140.4774  166.3990 C.2     1  UNL1        0.0873
      9 S         142.4102  141.3550  167.4944 S.3     1  UNL1       -0.0254
     10 C         142.3778  140.5493  168.7592 C.2     1  UNL1        0.2832
     11 O         141.9172  141.0341  170.1018 O.2     1  UNL1       -0.2622
     12 N         142.8869  139.1736  168.4455 N.am    1  UNL1       -0.2425
     13 C         143.2339  139.1292  166.9869 C.2     1  UNL1        0.2583
     14 O         143.7798  137.9446  166.2462 O.2     1  UNL1       -0.2692
     15 H         142.9774  138.4304  169.0848 H       1  UNL1        0.1587
     16 N         140.4559  141.4489  163.7522 N.pl3   1  UNL1       -0.3038
     17 C         140.3263  140.7433  162.4350 C.3     1  UNL1        0.0910
     18 C         139.3261  139.6373  162.2717 C.3     1  UNL1        0.0228
     19 C         138.4556  139.2371  163.4258 C.3     1  UNL1        0.0190
     20 C         138.5852  139.9427  164.7432 C.3     1  UNL1        0.0709
     21 N         137.7147  139.5425  165.8973 N.3     1  UNL1       -0.3208
     22 C         139.5854  141.0486  164.9063 C.3     1  UNL1        0.1062
     23 H         137.0992  138.7812  165.6108 H       1  UNL1        0.1189
     24 H         137.1530  140.3411  166.1925 H       1  UNL1        0.1189
     25 O         139.7735  144.2318  162.8638 O.3     1  UNL1       -0.4742
     26 C         138.8172  144.7980  165.2121 C.3     1  UNL1        0.0512
     27 C         138.6067  144.5658  163.7452 C.3     1  UNL1        0.2056
@<TRIPOS>BOND
     1    26    27    1
     2    27    25    1
     3    25     1    1
     4     1     2   ar
     5     2     3   ar
     6     3     4   ar
     7     4     5   ar
     8     5     7    1
     9     7     8    2
    10     8     9    1
    11     9    10    1
    12    10    11    2
    13    10    12   am
    14    12    13   am
    15    13    14    2
    16     5     6   ar
    17     6    16    1
    18    16    17    1
    19    17    18    1
    20    18    19    1
    21    19    20    1
    22    20    21    1
    23    20    22    1
    24     6     1   ar
    25    22    16    1
    26    13     8    1
    27    12    15    1
    28    21    23    1
    29    21    24    1
@<TRIPOS>MOLECULE
*****
 27 29 0 0 0
SMALL
GASTEIGER

@<TRIPOS>ATOM
      1 C         143.4758  140.1756  164.3202 C.ar    1  UNL1        0.1517
      2 C         144.8293  140.7927  164.1279 C.ar    1  UNL1        0.0382
      3 C         144.9969  142.2798  164.2297 C.ar    1  UNL1        0.0032
      4 C         143.8110  143.1498  164.5239 C.ar    1  UNL1        0.0014
      5 C         142.4574  142.5327  164.7162 C.ar    1  UNL1        0.0170
      6 C         142.2898  141.0456  164.6144 C.ar    1  UNL1        0.0823
      7 C         141.2714  143.4028  165.0104 C.2     1  UNL1        0.0125
      8 C         140.4404  143.9436  163.8848 C.2     1  UNL1        0.0873
      9 S         140.6718  143.7015  162.4227 S.3     1  UNL1       -0.0254
     10 C         139.6066  144.4299  161.6579 C.2     1  UNL1        0.2832
     11 O         139.4573  144.4605  160.1657 O.2     1  UNL1       -0.2622
     12 N         138.7169  145.1222  162.6474 N.am    1  UNL1       -0.2425
     13 C         139.2322  144.8217  164.0237 C.2     1  UNL1        0.2583
     14 O         138.6428  145.3129  165.3126 O.2     1  UNL1       -0.2692
     15 H         137.9324  145.6764  162.4315 H       1  UNL1        0.1587
     16 N         140.9362  140.4285  164.8067 N.pl3   1  UNL1       -0.3038
     17 C         140.0638  140.1488  163.6190 C.3     1  UNL1        0.0910
     18 C         138.7102  139.5317  163.8113 C.3     1  UNL1        0.0228
     19 C         138.2290  139.1943  165.1914 C.3     1  UNL1        0.0190
     20 C         139.1014  139.4741  166.3791 C.3     1  UNL1        0.0709
     21 N         138.6202  139.1368  167.7592 N.3     1  UNL1       -0.3208
     22 C         140.4549  140.0912  166.1868 C.3     1  UNL1        0.1062
     23 H         137.6872  138.7284  167.7036 H       1  UNL1        0.1189
     24 H         138.5868  139.9852  168.3245 H       1  UNL1        0.1189
     25 O         143.3081  138.6885  164.2184 O.3     1  UNL1       -0.4742
     26 C         143.7888  138.1026  161.7333 C.3     1  UNL1        0.0512
     27 C         142.8752  138.0695  162.9225 C.3     1  UNL1        0.2056
@<TRIPOS>BOND
     1    26    27    1
     2    27    25    1
     3    25     1    1
     4     1     2   ar
     5     2     3   ar
     6     3     4   ar
     7     4     5   ar
     8     5     7    1
     9     7     8    2
    10     8     9    1
    11     9    10    1
    12    10    11    2
    13    10    12   am
    14    12    13   am
    15    13    14    2
    16     5     6   ar
    17     6    16    1
    18    16    17    1
    19    17    18    1
    20    18    19    1
    21    19    20    1
    22    20    21    1
    23    20    22    1
    24     6     1   ar
    25    22    16    1
    26    13     8    1
    27    12    15    1
    28    21    23    1
    29    21    24    1
