@<TRIPOS>MOLECULE
*****
 35 37 0 0 0
SMALL
GASTEIGER

@<TRIPOS>ATOM
      1 C         143.4189  138.9219  160.5637 C.ar    1  UNL1        0.1321
      2 N         143.9549  139.1938  159.1894 N.ar    1  UNL1       -0.2291
      3 C         143.0267  139.2056  158.0112 C.ar    1  UNL1        0.1003
      4 C         141.5625  138.9456  158.2073 C.ar    1  UNL1        0.0208
      5 C         141.0265  138.6737  159.5816 C.ar    1  UNL1        0.0043
      6 C         139.5623  138.4136  159.7777 C.ar    1  UNL1        0.0014
      7 C         139.0263  138.1417  161.1520 C.ar    1  UNL1        0.0147
      8 C         139.9545  138.1299  162.3303 C.ar    1  UNL1        0.0504
      9 C         141.4187  138.3899  162.1342 C.ar    1  UNL1        0.0174
     10 C         141.9547  138.6618  160.7598 C.ar    1  UNL1        0.0330
     11 N         139.4185  137.8580  163.7046 N.am    1  UNL1       -0.2839
     12 C         138.9189  138.9901  164.5523 C.2     1  UNL1        0.2261
     13 O         138.9552  140.3941  164.0257 O.2     1  UNL1       -0.2748
     14 H         139.3947  136.9365  164.0502 H       1  UNL1        0.1549
     15 C         138.3828  138.7182  165.9266 C.3     1  UNL1        0.0854
     16 C         138.9558  139.4384  167.1112 C.3     1  UNL1        0.0096
     17 C         140.4118  139.7975  167.1383 C.3     1  UNL1        0.0005
     18 C         140.8310  141.2360  167.0670 C.3     1  UNL1        0.0005
     19 C         141.1447  141.9890  168.3257 C.3     1  UNL1        0.0096
     20 C         140.1580  142.0059  169.4554 C.3     1  UNL1        0.0871
     21 C         140.2945  141.0285  170.5851 C.2     1  UNL1        0.2443
     22 O         141.3617  141.2237  171.6209 O.2     1  UNL1       -0.2730
     23 N         139.3638  139.8559  170.6789 N.am    1  UNL1       -0.1970
     24 O         139.5003  138.8785  171.8085 O.3     1  UNL1       -0.2952
     25 H         138.6634  139.7278  169.9991 H       1  UNL1        0.1822
     26 H         140.2330  139.1493  172.3836 H       1  UNL1        0.2414
     27 N         144.3472  138.9100  161.7420 N.pl3   1  UNL1       -0.2979
     28 H         144.9254  138.1302  161.9053 H       1  UNL1        0.1536
     29 C         144.5356  143.6155  165.4599 C.3     1  UNL1        0.0310
     30 C         144.4885  142.4391  164.5305 C.ar    1  UNL1       -0.0218
     31 C         144.0371  141.1012  165.0364 C.ar    1  UNL1       -0.0030
     32 C         143.9900  139.9248  164.1069 C.ar    1  UNL1        0.0143
     33 C         144.3943  140.0864  162.6715 C.ar    1  UNL1        0.0493
     34 C         144.8457  141.4244  162.1655 C.ar    1  UNL1        0.0143
     35 C         144.8928  142.6008  163.0950 C.ar    1  UNL1       -0.0030
@<TRIPOS>BOND
     1    29    30    1
     2    30    31   ar
     3    31    32   ar
     4    32    33   ar
     5    33    27    1
     6    27     1    1
     7     1     2   ar
     8     2     3   ar
     9     3     4   ar
    10     4     5   ar
    11     5     6   ar
    12     6     7   ar
    13     7     8   ar
    14     8    11    1
    15    11    12   am
    16    12    13    2
    17    12    15    1
    18    15    16    1
    19    16    17    1
    20    17    18    1
    21    18    19    1
    22    19    20    1
    23    20    21    1
    24    21    22    2
    25    21    23   am
    26    23    24    1
    27     8     9   ar
    28     9    10   ar
    29    33    34   ar
    30    34    35   ar
    31    35    30   ar
    32    10     1   ar
    33    10     5   ar
    34    27    28    1
    35    11    14    1
    36    23    25    1
    37    24    26    1
@<TRIPOS>MOLECULE
*****
 35 37 0 0 0
SMALL
GASTEIGER

@<TRIPOS>ATOM
      1 C         143.2793  138.7617  160.8048 C.ar    1  UNL1        0.1321
      2 N         143.7629  138.9022  159.3919 N.ar    1  UNL1       -0.2291
      3 C         142.7855  138.8454  158.2555 C.ar    1  UNL1        0.1003
      4 C         141.3245  138.6480  158.5320 C.ar    1  UNL1        0.0208
      5 C         140.8409  138.5075  159.9449 C.ar    1  UNL1        0.0043
      6 C         139.3798  138.3101  160.2214 C.ar    1  UNL1        0.0014
      7 C         138.8962  138.1695  161.6343 C.ar    1  UNL1        0.0147
      8 C         139.8736  138.2264  162.7708 C.ar    1  UNL1        0.0504
      9 C         141.3347  138.4237  162.4943 C.ar    1  UNL1        0.0174
     10 C         141.8183  138.5643  161.0813 C.ar    1  UNL1        0.0330
     11 N         139.3900  138.0858  164.1837 N.am    1  UNL1       -0.2839
     12 C         138.6398  139.2097  164.8349 C.2     1  UNL1        0.2261
     13 O         138.3732  140.4741  164.0733 O.2     1  UNL1       -0.2748
     14 H         139.5650  137.2559  164.6836 H       1  UNL1        0.1549
     15 C         138.1562  139.0691  166.2479 C.3     1  UNL1        0.0854
     16 C         138.9522  139.6571  167.3751 C.3     1  UNL1        0.0096
     17 C         140.3141  140.2285  167.1132 C.3     1  UNL1        0.0005
     18 C         140.5244  141.7132  167.1505 C.3     1  UNL1        0.0005
     19 C         140.5275  142.5026  165.8750 C.3     1  UNL1        0.0096
     20 C         139.5952  143.6661  165.7108 C.3     1  UNL1        0.0871
     21 C         139.6698  144.5189  164.4790 C.2     1  UNL1        0.2443
     22 O         138.4563  144.6973  163.6156 O.2     1  UNL1       -0.2730
     23 N         140.9581  145.1934  164.1107 N.am    1  UNL1       -0.1970
     24 O         141.0328  146.0462  162.8791 O.3     1  UNL1       -0.2952
     25 H         141.7545  145.0763  164.6774 H       1  UNL1        0.1822
     26 H         140.1683  146.0554  162.4392 H       1  UNL1        0.2414
     27 N         144.2567  138.8185  161.9413 N.pl3   1  UNL1       -0.2979
     28 H         144.8497  138.0530  162.1193 H       1  UNL1        0.1536
     29 C         144.5523  143.7109  165.4020 C.3     1  UNL1        0.0310
     30 C         144.4784  142.4878  164.5368 C.ar    1  UNL1       -0.0218
     31 C         143.9611  141.1988  165.1030 C.ar    1  UNL1       -0.0030
     32 C         143.8872  139.9757  164.2378 C.ar    1  UNL1        0.0143
     33 C         144.3306  140.0416  162.8064 C.ar    1  UNL1        0.0493
     34 C         144.8480  141.3307  162.2402 C.ar    1  UNL1        0.0143
     35 C         144.9219  142.5538  163.1053 C.ar    1  UNL1       -0.0030
@<TRIPOS>BOND
     1    29    30    1
     2    30    31   ar
     3    31    32   ar
     4    32    33   ar
     5    33    27    1
     6    27     1    1
     7     1     2   ar
     8     2     3   ar
     9     3     4   ar
    10     4     5   ar
    11     5     6   ar
    12     6     7   ar
    13     7     8   ar
    14     8    11    1
    15    11    12   am
    16    12    13    2
    17    12    15    1
    18    15    16    1
    19    16    17    1
    20    17    18    1
    21    18    19    1
    22    19    20    1
    23    20    21    1
    24    21    22    2
    25    21    23   am
    26    23    24    1
    27     8     9   ar
    28     9    10   ar
    29    33    34   ar
    30    34    35   ar
    31    35    30   ar
    32    10     1   ar
    33    10     5   ar
    34    27    28    1
    35    11    14    1
    36    23    25    1
    37    24    26    1
@<TRIPOS>MOLECULE
*****
 35 37 0 0 0
SMALL
GASTEIGER

@<TRIPOS>ATOM
      1 C         138.4781  139.6441  160.2638 C.ar    1  UNL1        0.1321
      2 N         138.1798  139.8844  158.8136 N.ar    1  UNL1       -0.2291
      3 C         139.1953  139.5255  157.7696 C.ar    1  UNL1        0.1003
      4 C         140.5091  138.9264  158.1758 C.ar    1  UNL1        0.0208
      5 C         140.8073  138.6861  159.6261 C.ar    1  UNL1        0.0043
      6 C         142.1211  138.0869  160.0323 C.ar    1  UNL1        0.0014
      7 C         142.4194  137.8466  161.4826 C.ar    1  UNL1        0.0147
      8 C         141.4039  138.2055  162.5266 C.ar    1  UNL1        0.0504
      9 C         140.0901  138.8047  162.1204 C.ar    1  UNL1        0.0174
     10 C         139.7919  139.0450  160.6701 C.ar    1  UNL1        0.0330
     11 N         141.7021  137.9652  163.9769 N.am    1  UNL1       -0.2839
     12 C         142.3180  139.0528  164.8062 C.2     1  UNL1        0.2261
     13 O         142.6356  140.3808  164.1852 O.2     1  UNL1       -0.2748
     14 H         141.4937  137.0936  164.3845 H       1  UNL1        0.1549
     15 C         142.6163  138.8125  166.2565 C.3     1  UNL1        0.0854
     16 C         143.0211  139.9563  167.1385 C.3     1  UNL1        0.0096
     17 C         142.5077  140.0365  168.5456 C.3     1  UNL1        0.0005
     18 C         141.0886  139.6568  168.8490 C.3     1  UNL1        0.0005
     19 C         139.9613  140.5181  168.3620 C.3     1  UNL1        0.0096
     20 C         139.3670  140.2795  167.0055 C.3     1  UNL1        0.0871
     21 C         138.6144  139.0118  166.7288 C.2     1  UNL1        0.2443
     22 O         138.9120  138.2177  165.4916 O.2     1  UNL1       -0.2730
     23 N         137.5642  138.5381  167.6895 N.am    1  UNL1       -0.1970
     24 O         136.8116  137.2705  167.4128 O.3     1  UNL1       -0.2952
     25 H         137.3689  139.0593  168.5015 H       1  UNL1        0.1822
     26 H         137.1238  136.8844  166.5795 H       1  UNL1        0.2414
     27 N         137.4626  140.0030  161.3079 N.pl3   1  UNL1       -0.2979
     28 H         136.6440  139.4646  161.4040 H       1  UNL1        0.1536
     29 C         138.3898  144.7199  164.8983 C.3     1  UNL1        0.0310
     30 C         138.1580  143.5407  164.0007 C.ar    1  UNL1       -0.0218
     31 C         138.2936  143.6913  162.5145 C.ar    1  UNL1       -0.0030
     32 C         138.0618  142.5121  161.6169 C.ar    1  UNL1        0.0143
     33 C         137.6944  141.1822  162.2055 C.ar    1  UNL1        0.0493
     34 C         137.5588  141.0316  163.6918 C.ar    1  UNL1        0.0143
     35 C         137.7906  142.2108  164.5894 C.ar    1  UNL1       -0.0030
@<TRIPOS>BOND
     1    29    30    1
     2    30    31   ar
     3    31    32   ar
     4    32    33   ar
     5    33    27    1
     6    27     1    1
     7     1     2   ar
     8     2     3   ar
     9     3     4   ar
    10     4     5   ar
    11     5     6   ar
    12     6     7   ar
    13     7     8   ar
    14     8    11    1
    15    11    12   am
    16    12    13    2
    17    12    15    1
    18    15    16    1
    19    16    17    1
    20    17    18    1
    21    18    19    1
    22    19    20    1
    23    20    21    1
    24    21    22    2
    25    21    23   am
    26    23    24    1
    27     8     9   ar
    28     9    10   ar
    29    33    34   ar
    30    34    35   ar
    31    35    30   ar
    32    10     1   ar
    33    10     5   ar
    34    27    28    1
    35    11    14    1
    36    23    25    1
    37    24    26    1
@<TRIPOS>MOLECULE
*****
 35 37 0 0 0
SMALL
GASTEIGER

@<TRIPOS>ATOM
      1 C         138.4496  139.7216  160.4257 C.ar    1  UNL1        0.1321
      2 N         138.1155  139.9472  158.9809 N.ar    1  UNL1       -0.2291
      3 C         139.1103  139.5905  157.9166 C.ar    1  UNL1        0.1003
      4 C         140.4393  139.0082  158.2970 C.ar    1  UNL1        0.0208
      5 C         140.7735  138.7826  159.7417 C.ar    1  UNL1        0.0043
      6 C         142.1025  138.2003  160.1221 C.ar    1  UNL1        0.0014
      7 C         142.4366  137.9747  161.5669 C.ar    1  UNL1        0.0147
      8 C         141.4417  138.3314  162.6314 C.ar    1  UNL1        0.0504
      9 C         140.1127  138.9137  162.2510 C.ar    1  UNL1        0.0174
     10 C         139.7786  139.1393  160.8061 C.ar    1  UNL1        0.0330
     11 N         141.7758  138.1058  164.0761 N.am    1  UNL1       -0.2839
     12 C         142.5142  139.1586  164.8484 C.2     1  UNL1        0.2261
     13 O         142.9185  140.4369  164.1760 O.2     1  UNL1       -0.2748
     14 H         141.5105  137.2667  164.5175 H       1  UNL1        0.1549
     15 C         142.8483  138.9329  166.2933 C.3     1  UNL1        0.0854
     16 C         142.1480  139.7246  167.3575 C.3     1  UNL1        0.0096
     17 C         140.6505  139.8112  167.3648 C.3     1  UNL1        0.0005
     18 C         139.9759  141.1125  167.6835 C.3     1  UNL1        0.0005
     19 C         140.7947  142.3547  167.8741 C.3     1  UNL1        0.0096
     20 C         140.7069  143.1208  169.1607 C.3     1  UNL1        0.0871
     21 C         140.8550  142.4057  170.4710 C.2     1  UNL1        0.2443
     22 O         139.8551  142.6316  171.5660 O.2     1  UNL1       -0.2730
     23 N         142.0032  141.4647  170.6863 N.am    1  UNL1       -0.1970
     24 O         142.1514  140.7496  171.9964 O.3     1  UNL1       -0.2952
     25 H         142.6595  141.3165  169.9676 H       1  UNL1        0.1822
     26 H         141.4271  141.0062  172.5885 H       1  UNL1        0.2414
     27 N         137.4547  140.0783  161.4902 N.pl3   1  UNL1       -0.2979
     28 H         136.6328  139.5464  161.5939 H       1  UNL1        0.1536
     29 C         138.4848  144.7465  165.1160 C.3     1  UNL1        0.0310
     30 C         138.2273  143.5795  164.2096 C.ar    1  UNL1       -0.0218
     31 C         138.0342  142.2090  164.7878 C.ar    1  UNL1       -0.0030
     32 C         137.7767  141.0419  163.8814 C.ar    1  UNL1        0.0143
     33 C         137.7122  141.2454  162.3966 C.ar    1  UNL1        0.0493
     34 C         137.9053  142.6159  161.8183 C.ar    1  UNL1        0.0143
     35 C         138.1628  143.7830  162.7248 C.ar    1  UNL1       -0.0030
@<TRIPOS>BOND
     1    29    30    1
     2    30    31   ar
     3    31    32   ar
     4    32    33   ar
     5    33    27    1
     6    27     1    1
     7     1     2   ar
     8     2     3   ar
     9     3     4   ar
    10     4     5   ar
    11     5     6   ar
    12     6     7   ar
    13     7     8   ar
    14     8    11    1
    15    11    12   am
    16    12    13    2
    17    12    15    1
    18    15    16    1
    19    16    17    1
    20    17    18    1
    21    18    19    1
    22    19    20    1
    23    20    21    1
    24    21    22    2
    25    21    23   am
    26    23    24    1
    27     8     9   ar
    28     9    10   ar
    29    33    34   ar
    30    34    35   ar
    31    35    30   ar
    32    10     1   ar
    33    10     5   ar
    34    27    28    1
    35    11    14    1
    36    23    25    1
    37    24    26    1
@<TRIPOS>MOLECULE
*****
 35 37 0 0 0
SMALL
GASTEIGER

@<TRIPOS>ATOM
      1 C         141.1607  141.6081  167.2733 C.ar    1  UNL1        0.1321
      2 N         141.3135  142.2094  168.6389 N.ar    1  UNL1       -0.2291
      3 C         140.4223  141.7619  169.7594 C.ar    1  UNL1        0.1003
      4 C         139.3783  140.7132  169.5142 C.ar    1  UNL1        0.0208
      5 C         139.2254  140.1119  168.1486 C.ar    1  UNL1        0.0043
      6 C         138.1814  139.0632  167.9034 C.ar    1  UNL1        0.0014
      7 C         138.0285  138.4619  166.5377 C.ar    1  UNL1        0.0147
      8 C         138.9198  138.9093  165.4172 C.ar    1  UNL1        0.0504
      9 C         139.9638  139.9580  165.6624 C.ar    1  UNL1        0.0174
     10 C         140.1166  140.5593  167.0281 C.ar    1  UNL1        0.0330
     11 N         138.7669  138.3080  164.0515 N.am    1  UNL1       -0.2839
     12 C         138.1489  139.1091  162.9442 C.2     1  UNL1        0.2261
     13 O         137.6837  140.5116  163.2025 O.2     1  UNL1       -0.2748
     14 H         139.0723  137.3875  163.8820 H       1  UNL1        0.1549
     15 C         137.9961  138.5078  161.5785 C.3     1  UNL1        0.0854
     16 C         139.2108  138.1041  160.7965 C.3     1  UNL1        0.0096
     17 C         140.5588  138.6433  161.1736 C.3     1  UNL1        0.0005
     18 C         141.5521  137.7602  161.8689 C.3     1  UNL1        0.0005
     19 C         142.3937  138.3096  162.9824 C.3     1  UNL1        0.0096
     20 C         143.7468  138.8852  162.6861 C.3     1  UNL1        0.0871
     21 C         144.3589  139.8835  163.6236 C.2     1  UNL1        0.2443
     22 O         143.8525  139.9995  165.0307 O.2     1  UNL1       -0.2730
     23 N         145.4774  140.7657  163.1539 N.am    1  UNL1       -0.1970
     24 O         146.0895  141.7639  164.0913 O.3     1  UNL1       -0.2952
     25 H         145.8098  140.6895  162.2303 H       1  UNL1        0.1822
     26 H         145.6495  141.7094  164.9540 H       1  UNL1        0.2414
     27 N         142.0519  142.0555  166.1527 N.pl3   1  UNL1       -0.2979
     28 H         142.9638  141.6927  166.0741 H       1  UNL1        0.1536
     29 C         140.0595  146.0562  162.1496 C.3     1  UNL1        0.0310
     30 C         140.5576  145.0560  163.1504 C.ar    1  UNL1       -0.0218
     31 C         141.9113  144.4332  162.9784 C.ar    1  UNL1       -0.0030
     32 C         142.4094  143.4331  163.9791 C.ar    1  UNL1        0.0143
     33 C         141.5538  143.0557  165.1519 C.ar    1  UNL1        0.0493
     34 C         140.2001  143.6785  165.3240 C.ar    1  UNL1        0.0143
     35 C         139.7020  144.6786  164.3233 C.ar    1  UNL1       -0.0030
@<TRIPOS>BOND
     1    29    30    1
     2    30    31   ar
     3    31    32   ar
     4    32    33   ar
     5    33    27    1
     6    27     1    1
     7     1     2   ar
     8     2     3   ar
     9     3     4   ar
    10     4     5   ar
    11     5     6   ar
    12     6     7   ar
    13     7     8   ar
    14     8    11    1
    15    11    12   am
    16    12    13    2
    17    12    15    1
    18    15    16    1
    19    16    17    1
    20    17    18    1
    21    18    19    1
    22    19    20    1
    23    20    21    1
    24    21    22    2
    25    21    23   am
    26    23    24    1
    27     8     9   ar
    28     9    10   ar
    29    33    34   ar
    30    34    35   ar
    31    35    30   ar
    32    10     1   ar
    33    10     5   ar
    34    27    28    1
    35    11    14    1
    36    23    25    1
    37    24    26    1
@<TRIPOS>MOLECULE
*****
 35 37 0 0 0
SMALL
GASTEIGER

@<TRIPOS>ATOM
      1 C         143.0290  143.5400  160.3484 C.ar    1  UNL1        0.1321
      2 N         142.6078  144.0928  159.0191 N.ar    1  UNL1       -0.2291
      3 C         142.5508  143.1960  157.8180 C.ar    1  UNL1        0.1003
      4 C         142.9150  141.7466  157.9463 C.ar    1  UNL1        0.0208
      5 C         143.3362  141.1939  159.2756 C.ar    1  UNL1        0.0043
      6 C         143.7004  139.7444  159.4038 C.ar    1  UNL1        0.0014
      7 C         144.1216  139.1917  160.7331 C.ar    1  UNL1        0.0147
      8 C         144.1787  140.0885  161.9342 C.ar    1  UNL1        0.0504
      9 C         143.8145  141.5379  161.8060 C.ar    1  UNL1        0.0174
     10 C         143.3932  142.0906  160.4766 C.ar    1  UNL1        0.0330
     11 N         144.5999  139.5357  163.2635 N.am    1  UNL1       -0.2839
     12 C         143.5782  139.3029  164.3368 C.2     1  UNL1        0.2261
     13 O         142.1353  139.6228  164.0808 O.2     1  UNL1       -0.2748
     14 H         145.5469  139.3258  163.4316 H       1  UNL1        0.1549
     15 C         143.9995  138.7502  165.6661 C.3     1  UNL1        0.0854
     16 C         142.9826  138.5461  166.7498 C.3     1  UNL1        0.0096
     17 C         142.7857  139.5977  167.8012 C.3     1  UNL1        0.0005
     18 C         142.1360  140.9019  167.4451 C.3     1  UNL1        0.0005
     19 C         140.6586  141.0799  167.6332 C.3     1  UNL1        0.0096
     20 C         139.9173  140.2154  168.6095 C.3     1  UNL1        0.0871
     21 C         139.9419  140.5452  170.0726 C.2     1  UNL1        0.2443
     22 O         139.5038  139.5231  171.0793 O.2     1  UNL1       -0.2730
     23 N         140.4046  141.8971  170.5290 N.am    1  UNL1       -0.1970
     24 O         140.4292  142.2269  171.9920 O.3     1  UNL1       -0.2952
     25 H         140.6921  142.5679  169.8683 H       1  UNL1        0.1822
     26 H         140.1174  141.4624  172.5011 H       1  UNL1        0.2414
     27 N         143.0860  144.4368  161.5495 N.pl3   1  UNL1       -0.2979
     28 H         143.8920  144.9745  161.7246 H       1  UNL1        0.1536
     29 C         138.4024  144.7469  165.2868 C.3     1  UNL1        0.0310
     30 C         139.5733  144.6693  164.3525 C.ar    1  UNL1       -0.0218
     31 C         140.8257  143.9611  164.7766 C.ar    1  UNL1       -0.0030
     32 C         141.9966  143.8836  163.8423 C.ar    1  UNL1        0.0143
     33 C         141.9151  144.5143  162.4838 C.ar    1  UNL1        0.0493
     34 C         140.6627  145.2226  162.0596 C.ar    1  UNL1        0.0143
     35 C         139.4918  145.3001  162.9939 C.ar    1  UNL1       -0.0030
@<TRIPOS>BOND
     1    29    30    1
     2    30    31   ar
     3    31    32   ar
     4    32    33   ar
     5    33    27    1
     6    27     1    1
     7     1     2   ar
     8     2     3   ar
     9     3     4   ar
    10     4     5   ar
    11     5     6   ar
    12     6     7   ar
    13     7     8   ar
    14     8    11    1
    15    11    12   am
    16    12    13    2
    17    12    15    1
    18    15    16    1
    19    16    17    1
    20    17    18    1
    21    18    19    1
    22    19    20    1
    23    20    21    1
    24    21    22    2
    25    21    23   am
    26    23    24    1
    27     8     9   ar
    28     9    10   ar
    29    33    34   ar
    30    34    35   ar
    31    35    30   ar
    32    10     1   ar
    33    10     5   ar
    34    27    28    1
    35    11    14    1
    36    23    25    1
    37    24    26    1
@<TRIPOS>MOLECULE
*****
 35 37 0 0 0
SMALL
GASTEIGER

@<TRIPOS>ATOM
      1 C         141.2483  141.8393  167.1671 C.ar    1  UNL1        0.1321
      2 N         141.3908  142.4826  168.5146 N.ar    1  UNL1       -0.2291
      3 C         140.5313  142.0286  169.6570 C.ar    1  UNL1        0.1003
      4 C         139.5294  140.9314  169.4519 C.ar    1  UNL1        0.0208
      5 C         139.3869  140.2881  168.1044 C.ar    1  UNL1        0.0043
      6 C         138.3849  139.1908  167.8993 C.ar    1  UNL1        0.0014
      7 C         138.2424  138.5475  166.5518 C.ar    1  UNL1        0.0147
      8 C         139.1019  139.0015  165.4093 C.ar    1  UNL1        0.0504
      9 C         140.1039  140.0987  165.6144 C.ar    1  UNL1        0.0174
     10 C         140.2464  140.7421  166.9620 C.ar    1  UNL1        0.0330
     11 N         138.9595  138.3582  164.0617 N.am    1  UNL1       -0.2839
     12 C         138.1602  139.0353  162.9881 C.2     1  UNL1        0.2261
     13 O         137.5034  140.3558  163.2620 O.2     1  UNL1       -0.2748
     14 H         139.3905  137.4915  163.8820 H       1  UNL1        0.1549
     15 C         138.0177  138.3920  161.6406 C.3     1  UNL1        0.0854
     16 C         139.2309  138.1537  160.7912 C.3     1  UNL1        0.0096
     17 C         139.4710  138.9957  159.5733 C.3     1  UNL1        0.0005
     18 C         140.6921  139.8628  159.4898 C.3     1  UNL1        0.0005
     19 C         141.4688  140.1862  160.7317 C.3     1  UNL1        0.0096
     20 C         141.1025  141.3858  161.5543 C.3     1  UNL1        0.0871
     21 C         140.0632  142.3468  161.0578 C.2     1  UNL1        0.2443
     22 O         140.4195  143.3635  160.0141 O.2     1  UNL1       -0.2730
     23 N         138.6676  142.2909  161.6049 N.am    1  UNL1       -0.1970
     24 O         137.6284  143.2518  161.1084 O.3     1  UNL1       -0.2952
     25 H         138.4338  141.6235  162.2899 H       1  UNL1        0.1822
     26 H         138.0210  143.8365  160.4414 H       1  UNL1        0.2414
     27 N         142.1079  142.2933  166.0246 N.pl3   1  UNL1       -0.2979
     28 H         143.0231  141.9436  165.9278 H       1  UNL1        0.1536
     29 C         139.9681  146.2404  162.0444 C.3     1  UNL1        0.0310
     30 C         140.5030  145.2536  163.0394 C.ar    1  UNL1       -0.0218
     31 C         139.5964  144.6780  164.0866 C.ar    1  UNL1       -0.0030
     32 C         140.1313  143.6912  165.0816 C.ar    1  UNL1        0.0143
     33 C         141.5729  143.2800  165.0295 C.ar    1  UNL1        0.0493
     34 C         142.4797  143.8557  163.9823 C.ar    1  UNL1        0.0143
     35 C         141.9447  144.8425  162.9873 C.ar    1  UNL1       -0.0030
@<TRIPOS>BOND
     1    29    30    1
     2    30    31   ar
     3    31    32   ar
     4    32    33   ar
     5    33    27    1
     6    27     1    1
     7     1     2   ar
     8     2     3   ar
     9     3     4   ar
    10     4     5   ar
    11     5     6   ar
    12     6     7   ar
    13     7     8   ar
    14     8    11    1
    15    11    12   am
    16    12    13    2
    17    12    15    1
    18    15    16    1
    19    16    17    1
    20    17    18    1
    21    18    19    1
    22    19    20    1
    23    20    21    1
    24    21    22    2
    25    21    23   am
    26    23    24    1
    27     8     9   ar
    28     9    10   ar
    29    33    34   ar
    30    34    35   ar
    31    35    30   ar
    32    10     1   ar
    33    10     5   ar
    34    27    28    1
    35    11    14    1
    36    23    25    1
    37    24    26    1
@<TRIPOS>MOLECULE
*****
 35 37 0 0 0
SMALL
GASTEIGER

@<TRIPOS>ATOM
      1 C         139.7667  140.3706  166.5859 C.ar    1  UNL1        0.1321
      2 N         139.5164  140.5296  168.0562 N.ar    1  UNL1       -0.2291
      3 C         140.5878  140.1704  169.0426 C.ar    1  UNL1        0.1003
      4 C         141.9096  139.6522  168.5586 C.ar    1  UNL1        0.0208
      5 C         142.1600  139.4932  167.0882 C.ar    1  UNL1        0.0043
      6 C         143.4819  138.9750  166.6042 C.ar    1  UNL1        0.0014
      7 C         143.7322  138.8160  165.1339 C.ar    1  UNL1        0.0147
      8 C         142.6608  139.1752  164.1474 C.ar    1  UNL1        0.0504
      9 C         141.3389  139.6934  164.6314 C.ar    1  UNL1        0.0174
     10 C         141.0886  139.8524  166.1019 C.ar    1  UNL1        0.0330
     11 N         142.9111  139.0162  162.6771 N.am    1  UNL1       -0.2839
     12 C         142.1978  137.9452  161.9063 C.2     1  UNL1        0.2261
     13 O         141.2340  137.0332  162.6059 O.2     1  UNL1       -0.2748
     14 H         143.5437  139.6147  162.2179 H       1  UNL1        0.1549
     15 C         142.4482  137.7862  160.4359 C.3     1  UNL1        0.0854
     16 C         141.5748  138.4972  159.4452 C.3     1  UNL1        0.0096
     17 C         141.4393  139.9900  159.5005 C.3     1  UNL1        0.0005
     18 C         140.3112  140.6128  160.2683 C.3     1  UNL1        0.0005
     19 C         140.5993  141.6342  161.3283 C.3     1  UNL1        0.0096
     20 C         141.3226  142.8995  160.9738 C.3     1  UNL1        0.0871
     21 C         142.4881  143.3542  161.8013 C.2     1  UNL1        0.2443
     22 O         143.3326  142.3474  162.5246 O.2     1  UNL1       -0.2730
     23 N         142.8092  144.8158  161.9055 N.am    1  UNL1       -0.1970
     24 O         143.9747  145.2705  162.7330 O.3     1  UNL1       -0.2952
     25 H         142.2550  145.4766  161.4307 H       1  UNL1        0.1822
     26 H         144.4102  144.4997  163.1293 H       1  UNL1        0.2414
     27 N         138.6953  140.7297  165.5994 N.pl3   1  UNL1       -0.2979
     28 H         137.9271  140.1285  165.4664 H       1  UNL1        0.1536
     29 C         139.0912  145.8304  162.4646 C.3     1  UNL1        0.0310
     30 C         138.9922  144.5552  163.2483 C.ar    1  UNL1       -0.0218
     31 C         137.9182  143.5587  162.9268 C.ar    1  UNL1       -0.0030
     32 C         137.8192  142.2836  163.7105 C.ar    1  UNL1        0.0143
     33 C         138.7942  142.0049  164.8157 C.ar    1  UNL1        0.0493
     34 C         139.8684  143.0014  165.1373 C.ar    1  UNL1        0.0143
     35 C         139.9674  144.2765  164.3536 C.ar    1  UNL1       -0.0030
@<TRIPOS>BOND
     1    29    30    1
     2    30    31   ar
     3    31    32   ar
     4    32    33   ar
     5    33    27    1
     6    27     1    1
     7     1     2   ar
     8     2     3   ar
     9     3     4   ar
    10     4     5   ar
    11     5     6   ar
    12     6     7   ar
    13     7     8   ar
    14     8    11    1
    15    11    12   am
    16    12    13    2
    17    12    15    1
    18    15    16    1
    19    16    17    1
    20    17    18    1
    21    18    19    1
    22    19    20    1
    23    20    21    1
    24    21    22    2
    25    21    23   am
    26    23    24    1
    27     8     9   ar
    28     9    10   ar
    29    33    34   ar
    30    34    35   ar
    31    35    30   ar
    32    10     1   ar
    33    10     5   ar
    34    27    28    1
    35    11    14    1
    36    23    25    1
    37    24    26    1
@<TRIPOS>MOLECULE
*****
 35 37 0 0 0
SMALL
GASTEIGER

@<TRIPOS>ATOM
      1 C         138.3022  139.8250  160.2560 C.ar    1  UNL1        0.1321
      2 N         137.8363  140.1576  158.8695 N.ar    1  UNL1       -0.2291
      3 C         138.7263  139.8839  157.6935 C.ar    1  UNL1        0.1003
      4 C         140.0820  139.2775  157.9039 C.ar    1  UNL1        0.0208
      5 C         140.5478  138.9449  159.2904 C.ar    1  UNL1        0.0043
      6 C         141.9036  138.3386  159.5008 C.ar    1  UNL1        0.0014
      7 C         142.3694  138.0060  160.8873 C.ar    1  UNL1        0.0147
      8 C         141.4795  138.2797  162.0634 C.ar    1  UNL1        0.0504
      9 C         140.1237  138.8860  161.8530 C.ar    1  UNL1        0.0174
     10 C         139.6579  139.2187  160.4664 C.ar    1  UNL1        0.0330
     11 N         141.9453  137.9471  163.4499 N.am    1  UNL1       -0.2839
     12 C         142.9440  138.8301  164.1376 C.2     1  UNL1        0.2261
     13 O         143.4769  140.0457  163.4388 O.2     1  UNL1       -0.2748
     14 H         141.5956  137.1493  163.9085 H       1  UNL1        0.1549
     15 C         143.4099  138.4974  165.5241 C.3     1  UNL1        0.0854
     16 C         142.7386  139.1225  166.7110 C.3     1  UNL1        0.0096
     17 C         142.6086  140.6142  166.7997 C.3     1  UNL1        0.0005
     18 C         141.4922  141.3137  166.0824 C.3     1  UNL1        0.0005
     19 C         141.6013  142.7770  165.7714 C.3     1  UNL1        0.0096
     20 C         142.5976  143.2562  164.7577 C.3     1  UNL1        0.0871
     21 C         142.1564  143.5545  163.3554 C.2     1  UNL1        0.2443
     22 O         141.3874  142.5287  162.5768 O.2     1  UNL1       -0.2730
     23 N         142.4843  144.8788  162.7317 N.am    1  UNL1       -0.1970
     24 O         142.0432  145.1772  161.3295 O.3     1  UNL1       -0.2952
     25 H         142.9891  145.5520  163.2428 H       1  UNL1        0.1822
     26 H         141.5620  144.4143  160.9727 H       1  UNL1        0.2414
     27 N         137.4122  140.0987  161.4321 N.pl3   1  UNL1       -0.2979
     28 H         136.6379  139.5171  161.6094 H       1  UNL1        0.1536
     29 C         138.5716  144.7382  165.0557 C.3     1  UNL1        0.0310
     30 C         138.2817  143.5783  164.1498 C.ar    1  UNL1       -0.0218
     31 C         138.1901  143.7890  162.6676 C.ar    1  UNL1       -0.0030
     32 C         137.9003  142.6291  161.7616 C.ar    1  UNL1        0.0143
     33 C         137.7021  141.2586  162.3380 C.ar    1  UNL1        0.0493
     34 C         137.7937  141.0478  163.8203 C.ar    1  UNL1        0.0143
     35 C         138.0835  142.2077  164.7263 C.ar    1  UNL1       -0.0030
@<TRIPOS>BOND
     1    29    30    1
     2    30    31   ar
     3    31    32   ar
     4    32    33   ar
     5    33    27    1
     6    27     1    1
     7     1     2   ar
     8     2     3   ar
     9     3     4   ar
    10     4     5   ar
    11     5     6   ar
    12     6     7   ar
    13     7     8   ar
    14     8    11    1
    15    11    12   am
    16    12    13    2
    17    12    15    1
    18    15    16    1
    19    16    17    1
    20    17    18    1
    21    18    19    1
    22    19    20    1
    23    20    21    1
    24    21    22    2
    25    21    23   am
    26    23    24    1
    27     8     9   ar
    28     9    10   ar
    29    33    34   ar
    30    34    35   ar
    31    35    30   ar
    32    10     1   ar
    33    10     5   ar
    34    27    28    1
    35    11    14    1
    36    23    25    1
    37    24    26    1
