@<TRIPOS>MOLECULE
*****
 33 36 0 0 0
SMALL
GASTEIGER

@<TRIPOS>ATOM
      1 N         140.5197  141.7321  167.8361 N.ar    1  UNL1       -0.2399
      2 N         140.3610  142.0254  166.3737 N.ar    1  UNL1       -0.1681
      3 C         139.5357  140.9291  165.7679 C.ar    1  UNL1        0.1079
      4 C         139.1843  139.9582  166.8559 C.ar    1  UNL1        0.1031
      5 C         139.7924  140.4545  168.1342 C.ar    1  UNL1        0.1280
      6 N         139.6911  139.7898  169.4751 N.pl3   1  UNL1       -0.3427
      7 H         139.1887  138.9485  169.5708 H       1  UNL1        0.1437
      8 H         140.1269  140.1948  170.2594 H       1  UNL1        0.1437
      9 C         139.1325  140.8225  164.3270 C.ar    1  UNL1        0.0197
     10 C         137.8052  141.3578  163.8779 C.ar    1  UNL1        0.0031
     11 C         137.4022  141.2512  162.4371 C.ar    1  UNL1        0.0193
     12 C         138.3264  140.6092  161.4453 C.ar    1  UNL1        0.0844
     13 N         137.9232  140.5025  160.0043 N.ar    1  UNL1       -0.2117
     14 C         138.8474  139.8605  159.0125 C.ar    1  UNL1        0.2247
     15 C         140.1748  139.3252  159.4617 C.ar    1  UNL1        0.0577
     16 C         140.5779  139.4318  160.9025 C.ar    1  UNL1        0.0063
     17 C         139.6536  140.0738  161.8943 C.ar    1  UNL1        0.0180
     18 C         140.0567  140.1805  163.3352 C.ar    1  UNL1        0.0031
     19 O         138.4444  139.7539  157.5717 O.3     1  UNL1       -0.4640
     20 C         137.4538  140.7223  156.9963 C.3     1  UNL1        0.1678
     21 C         136.0955  141.0069  156.4271 C.3     1  UNL1        0.0473
     22 C         137.0964  142.1150  156.5689 C.3     1  UNL1        0.0473
     23 C         138.3680  138.7102  166.6942 C.2     1  UNL1        0.2470
     24 N         138.5985  137.8106  165.5163 N.am    1  UNL1       -0.3252
     25 O         137.3212  138.3618  167.7105 O.2     1  UNL1       -0.2702
     26 H         139.2855  138.0393  164.8492 H       1  UNL1        0.1453
     27 H         138.0627  136.9915  165.4102 H       1  UNL1        0.1453
     28 C         142.7565  142.4021  168.9753 C.3     1  UNL1        0.0265
     29 C         141.2733  142.5694  168.8266 C.3     1  UNL1        0.1091
     30 C         140.5437  143.5739  169.6684 C.3     1  UNL1        0.0561
     31 C         139.7784  143.1245  170.8777 C.3     1  UNL1        0.1392
     32 O         140.3593  142.0842  171.7890 O.3     1  UNL1       -0.3819
     33 H         140.4251  141.2401  171.3156 H       1  UNL1        0.2104
@<TRIPOS>BOND
     1    28    29    1
     2    29    30    1
     3    30    31    1
     4    31    32    1
     5    29     1    1
     6     1     2   ar
     7     2     3   ar
     8     3     9    1
     9     9    10   ar
    10    10    11   ar
    11    11    12   ar
    12    12    13   ar
    13    13    14   ar
    14    14    19    1
    15    19    20    1
    16    20    21    1
    17    21    22    1
    18    14    15   ar
    19    15    16   ar
    20    16    17   ar
    21    17    18   ar
    22     3     4   ar
    23     4    23    1
    24    23    24   am
    25    23    25    2
    26     4     5   ar
    27     5     6    1
    28     5     1   ar
    29    18     9   ar
    30    17    12   ar
    31    22    20    1
    32    32    33    1
    33    24    26    1
    34    24    27    1
    35     6     7    1
    36     6     8    1
@<TRIPOS>MOLECULE
*****
 33 36 0 0 0
SMALL
GASTEIGER

@<TRIPOS>ATOM
      1 N         140.0255  140.3689  167.5801 N.ar    1  UNL1       -0.2399
      2 N         140.8106  141.2667  166.6703 N.ar    1  UNL1       -0.1681
      3 C         140.2665  141.1095  165.2813 C.ar    1  UNL1        0.1079
      4 C         139.1452  140.1145  165.3326 C.ar    1  UNL1        0.1031
      5 C         138.9962  139.6568  166.7533 C.ar    1  UNL1        0.1280
      6 N         137.9940  138.6616  167.2585 N.pl3   1  UNL1       -0.3427
      7 H         137.3558  138.2457  166.6348 H       1  UNL1        0.1437
      8 H         137.9743  138.4244  168.2138 H       1  UNL1        0.1437
      9 C         140.7576  141.8222  164.0562 C.ar    1  UNL1        0.0197
     10 C         141.9826  141.3312  163.3433 C.ar    1  UNL1        0.0031
     11 C         142.4736  142.0439  162.1182 C.ar    1  UNL1        0.0193
     12 C         141.7396  143.2475  161.6059 C.ar    1  UNL1        0.0844
     13 N         142.2307  143.9602  160.3808 N.ar    1  UNL1       -0.2117
     14 C         141.4966  145.1639  159.8685 C.ar    1  UNL1        0.2247
     15 C         140.2716  145.6549  160.5814 C.ar    1  UNL1        0.0577
     16 C         139.7805  144.9422  161.8065 C.ar    1  UNL1        0.0063
     17 C         140.5146  143.7385  162.3188 C.ar    1  UNL1        0.0180
     18 C         140.0236  143.0258  163.5439 C.ar    1  UNL1        0.0031
     19 O         141.9877  145.8766  158.6434 O.3     1  UNL1       -0.4640
     20 C         141.1563  145.8817  157.3948 C.3     1  UNL1        0.1678
     21 C         140.9028  145.3889  156.0009 C.3     1  UNL1        0.0473
     22 C         139.9698  146.3832  156.6262 C.3     1  UNL1        0.0473
     23 C         138.3180  139.6574  164.1678 C.2     1  UNL1        0.2470
     24 N         137.3338  140.5946  163.5331 N.am    1  UNL1       -0.3252
     25 O         138.4751  138.2630  163.6376 O.2     1  UNL1       -0.2702
     26 H         137.2306  141.5098  163.8810 H       1  UNL1        0.1453
     27 H         136.7909  140.2946  162.7686 H       1  UNL1        0.1453
     28 C         139.1594  140.6341  170.0151 C.3     1  UNL1        0.0265
     29 C         140.2333  140.2109  169.0572 C.3     1  UNL1        0.1091
     30 C         141.5149  139.6297  169.5763 C.3     1  UNL1        0.0561
     31 C         142.4474  140.4772  170.3900 C.3     1  UNL1        0.1392
     32 O         142.2252  140.6328  171.8652 O.3     1  UNL1       -0.3819
     33 H         141.3955  141.1112  172.0185 H       1  UNL1        0.2104
@<TRIPOS>BOND
     1    28    29    1
     2    29    30    1
     3    30    31    1
     4    31    32    1
     5    29     1    1
     6     1     2   ar
     7     2     3   ar
     8     3     9    1
     9     9    10   ar
    10    10    11   ar
    11    11    12   ar
    12    12    13   ar
    13    13    14   ar
    14    14    19    1
    15    19    20    1
    16    20    21    1
    17    21    22    1
    18    14    15   ar
    19    15    16   ar
    20    16    17   ar
    21    17    18   ar
    22     3     4   ar
    23     4    23    1
    24    23    24   am
    25    23    25    2
    26     4     5   ar
    27     5     6    1
    28     5     1   ar
    29    18     9   ar
    30    17    12   ar
    31    22    20    1
    32    32    33    1
    33    24    26    1
    34    24    27    1
    35     6     7    1
    36     6     8    1
@<TRIPOS>MOLECULE
*****
 33 36 0 0 0
SMALL
GASTEIGER

@<TRIPOS>ATOM
      1 N         140.7560  141.4430  168.1348 N.ar    1  UNL1       -0.2399
      2 N         141.3600  141.5694  166.7677 N.ar    1  UNL1       -0.1681
      3 C         140.6928  140.5682  165.8718 C.ar    1  UNL1        0.1079
      4 C         139.6765  139.8231  166.6853 C.ar    1  UNL1        0.1031
      5 C         139.7155  140.3637  168.0839 C.ar    1  UNL1        0.1280
      6 N         138.8636  139.9055  169.2304 N.pl3   1  UNL1       -0.3427
      7 H         138.2048  139.1860  169.0974 H       1  UNL1        0.1437
      8 H         138.9632  140.3242  170.1158 H       1  UNL1        0.1437
      9 C         140.9899  140.3504  164.4177 C.ar    1  UNL1        0.0197
     10 C         140.1592  141.0333  163.3720 C.ar    1  UNL1        0.0031
     11 C         140.4563  140.8155  161.9180 C.ar    1  UNL1        0.0193
     12 C         141.5841  139.9149  161.5096 C.ar    1  UNL1        0.0844
     13 N         141.8812  139.6971  160.0555 N.ar    1  UNL1       -0.2117
     14 C         143.0091  138.7965  159.6471 C.ar    1  UNL1        0.2247
     15 C         143.8398  138.1136  160.6929 C.ar    1  UNL1        0.0577
     16 C         143.5427  138.3314  162.1469 C.ar    1  UNL1        0.0063
     17 C         142.4149  139.2320  162.5553 C.ar    1  UNL1        0.0180
     18 C         142.1178  139.4498  164.0093 C.ar    1  UNL1        0.0031
     19 O         143.3062  138.5787  158.1931 O.3     1  UNL1       -0.4640
     20 C         142.7358  137.3879  157.4811 C.3     1  UNL1        0.1678
     21 C         141.6522  136.7674  156.6500 C.3     1  UNL1        0.0473
     22 C         142.8315  135.9460  157.0793 C.3     1  UNL1        0.0473
     23 C         138.7787  138.7293  166.1875 C.2     1  UNL1        0.2470
     24 N         139.2702  137.7733  165.1414 N.am    1  UNL1       -0.3252
     25 O         137.3894  138.5916  166.7361 O.2     1  UNL1       -0.2702
     26 H         140.1820  137.8636  164.7814 H       1  UNL1        0.1453
     27 H         138.6809  137.0554  164.8148 H       1  UNL1        0.1453
     28 C         140.3832  143.5182  169.6530 C.3     1  UNL1        0.0265
     29 C         141.1272  142.2536  169.3411 C.3     1  UNL1        0.1091
     30 C         142.2425  141.7995  170.2356 C.3     1  UNL1        0.0561
     31 C         141.9487  140.9140  171.4101 C.3     1  UNL1        0.1392
     32 O         140.5282  140.6019  171.7773 O.3     1  UNL1       -0.3819
     33 H         140.0844  141.4131  172.0705 H       1  UNL1        0.2104
@<TRIPOS>BOND
     1    28    29    1
     2    29    30    1
     3    30    31    1
     4    31    32    1
     5    29     1    1
     6     1     2   ar
     7     2     3   ar
     8     3     9    1
     9     9    10   ar
    10    10    11   ar
    11    11    12   ar
    12    12    13   ar
    13    13    14   ar
    14    14    19    1
    15    19    20    1
    16    20    21    1
    17    21    22    1
    18    14    15   ar
    19    15    16   ar
    20    16    17   ar
    21    17    18   ar
    22     3     4   ar
    23     4    23    1
    24    23    24   am
    25    23    25    2
    26     4     5   ar
    27     5     6    1
    28     5     1   ar
    29    18     9   ar
    30    17    12   ar
    31    22    20    1
    32    32    33    1
    33    24    26    1
    34    24    27    1
    35     6     7    1
    36     6     8    1
@<TRIPOS>MOLECULE
*****
 33 36 0 0 0
SMALL
GASTEIGER

@<TRIPOS>ATOM
      1 N         140.3967  142.1335  168.0962 N.ar    1  UNL1       -0.2399
      2 N         140.3042  142.8342  166.7732 N.ar    1  UNL1       -0.1681
      3 C         139.6330  141.9071  165.8035 C.ar    1  UNL1        0.1079
      4 C         139.3108  140.6334  166.5273 C.ar    1  UNL1        0.1031
      5 C         139.7827  140.7733  167.9443 C.ar    1  UNL1        0.1280
      6 N         139.6619  139.7353  169.0204 N.pl3   1  UNL1       -0.3427
      7 H         139.2407  138.8677  168.8224 H       1  UNL1        0.1437
      8 H         140.0037  139.9216  169.9246 H       1  UNL1        0.1437
      9 C         139.3363  142.2020  164.3630 C.ar    1  UNL1        0.0197
     10 C         137.9766  142.6927  163.9625 C.ar    1  UNL1        0.0031
     11 C         137.6800  142.9876  162.5221 C.ar    1  UNL1        0.0193
     12 C         138.7430  142.7917  161.4821 C.ar    1  UNL1        0.0844
     13 N         138.4463  143.0865  160.0415 N.ar    1  UNL1       -0.2117
     14 C         139.5093  142.8906  159.0015 C.ar    1  UNL1        0.2247
     15 C         140.8690  142.3999  159.4020 C.ar    1  UNL1        0.0577
     16 C         141.1657  142.1050  160.8425 C.ar    1  UNL1        0.0063
     17 C         140.1027  142.3009  161.8825 C.ar    1  UNL1        0.0180
     18 C         140.3993  142.0061  163.3230 C.ar    1  UNL1        0.0031
     19 O         139.2126  143.1855  157.5610 O.3     1  UNL1       -0.4640
     20 C         137.9711  142.6360  156.9232 C.3     1  UNL1        0.1678
     21 C         136.9494  141.5450  156.7966 C.3     1  UNL1        0.0473
     22 C         136.8423  142.7752  155.9452 C.3     1  UNL1        0.0473
     23 C         138.6351  139.4310  165.9377 C.2     1  UNL1        0.2470
     24 N         139.1081  138.8712  164.6290 N.am    1  UNL1       -0.3252
     25 O         137.4864  138.7882  166.6570 O.2     1  UNL1       -0.2702
     26 H         139.8621  139.2931  164.1569 H       1  UNL1        0.1453
     27 H         138.6647  138.0820  164.2421 H       1  UNL1        0.1453
     28 C         140.4855  143.9865  169.9151 C.3     1  UNL1        0.0265
     29 C         140.9976  142.6944  169.3509 C.3     1  UNL1        0.1091
     30 C         142.1106  141.9633  170.0413 C.3     1  UNL1        0.0561
     31 C         141.9135  141.4383  171.4325 C.3     1  UNL1        0.1392
     32 O         140.6851  140.6454  171.7678 O.3     1  UNL1       -0.3819
     33 H         139.9032  141.2152  171.6970 H       1  UNL1        0.2104
@<TRIPOS>BOND
     1    28    29    1
     2    29    30    1
     3    30    31    1
     4    31    32    1
     5    29     1    1
     6     1     2   ar
     7     2     3   ar
     8     3     9    1
     9     9    10   ar
    10    10    11   ar
    11    11    12   ar
    12    12    13   ar
    13    13    14   ar
    14    14    19    1
    15    19    20    1
    16    20    21    1
    17    21    22    1
    18    14    15   ar
    19    15    16   ar
    20    16    17   ar
    21    17    18   ar
    22     3     4   ar
    23     4    23    1
    24    23    24   am
    25    23    25    2
    26     4     5   ar
    27     5     6    1
    28     5     1   ar
    29    18     9   ar
    30    17    12   ar
    31    22    20    1
    32    32    33    1
    33    24    26    1
    34    24    27    1
    35     6     7    1
    36     6     8    1
@<TRIPOS>MOLECULE
*****
 33 36 0 0 0
SMALL
GASTEIGER

@<TRIPOS>ATOM
      1 N         140.3873  141.6579  167.9511 N.ar    1  UNL1       -0.2399
      2 N         140.3052  141.9002  166.4731 N.ar    1  UNL1       -0.1681
      3 C         139.4924  140.7950  165.8666 C.ar    1  UNL1        0.1079
      4 C         139.0722  139.8696  166.9698 C.ar    1  UNL1        0.1031
      5 C         139.6252  140.4029  168.2581 C.ar    1  UNL1        0.1280
      6 N         139.4474  139.7890  169.6151 N.pl3   1  UNL1       -0.3427
      7 H         138.9271  138.9593  169.7157 H       1  UNL1        0.1437
      8 H         139.8510  140.2157  170.4052 H       1  UNL1        0.1437
      9 C         139.1585  140.6420  164.4122 C.ar    1  UNL1        0.0197
     10 C         137.8682  141.1887  163.8774 C.ar    1  UNL1        0.0031
     11 C         137.5344  141.0357  162.4231 C.ar    1  UNL1        0.0193
     12 C         138.4909  140.3361  161.5036 C.ar    1  UNL1        0.0844
     13 N         138.1570  140.1831  160.0492 N.ar    1  UNL1       -0.2117
     14 C         139.1135  139.4834  159.1296 C.ar    1  UNL1        0.2247
     15 C         140.4040  138.9367  159.6645 C.ar    1  UNL1        0.0577
     16 C         140.7378  139.0897  161.1189 C.ar    1  UNL1        0.0063
     17 C         139.7813  139.7894  162.0384 C.ar    1  UNL1        0.0180
     18 C         140.1151  139.9424  163.4927 C.ar    1  UNL1        0.0031
     19 O         138.7797  139.3305  157.6753 O.3     1  UNL1       -0.4640
     20 C         139.5725  138.3880  156.8189 C.3     1  UNL1        0.1678
     21 C         140.8710  137.9927  156.1806 C.3     1  UNL1        0.0473
     22 C         139.6469  137.1509  155.9740 C.3     1  UNL1        0.0473
     23 C         138.2443  138.6287  166.8123 C.2     1  UNL1        0.2470
     24 N         138.4711  137.7192  165.6414 N.am    1  UNL1       -0.3252
     25 O         137.1894  138.2974  167.8260 O.2     1  UNL1       -0.2702
     26 H         139.1634  137.9367  164.9761 H       1  UNL1        0.1453
     27 H         137.9277  136.9048  165.5381 H       1  UNL1        0.1453
     28 C         140.3945  143.6721  169.5922 C.3     1  UNL1        0.0265
     29 C         141.1053  142.5194  168.9473 C.3     1  UNL1        0.1091
     30 C         142.5342  142.2280  169.2986 C.3     1  UNL1        0.0561
     31 C         142.9868  140.8100  169.4838 C.3     1  UNL1        0.1392
     32 O         143.7046  140.4097  170.7386 O.3     1  UNL1       -0.3819
     33 H         144.5626  140.8605  170.7782 H       1  UNL1        0.2104
@<TRIPOS>BOND
     1    28    29    1
     2    29    30    1
     3    30    31    1
     4    31    32    1
     5    29     1    1
     6     1     2   ar
     7     2     3   ar
     8     3     9    1
     9     9    10   ar
    10    10    11   ar
    11    11    12   ar
    12    12    13   ar
    13    13    14   ar
    14    14    19    1
    15    19    20    1
    16    20    21    1
    17    21    22    1
    18    14    15   ar
    19    15    16   ar
    20    16    17   ar
    21    17    18   ar
    22     3     4   ar
    23     4    23    1
    24    23    24   am
    25    23    25    2
    26     4     5   ar
    27     5     6    1
    28     5     1   ar
    29    18     9   ar
    30    17    12   ar
    31    22    20    1
    32    32    33    1
    33    24    26    1
    34    24    27    1
    35     6     7    1
    36     6     8    1
@<TRIPOS>MOLECULE
*****
 33 36 0 0 0
SMALL
GASTEIGER

@<TRIPOS>ATOM
      1 N         141.4509  140.2330  168.7954 N.ar    1  UNL1       -0.2399
      2 N         142.1343  139.8520  167.5156 N.ar    1  UNL1       -0.1681
      3 C         141.0821  139.4104  166.5420 C.ar    1  UNL1        0.1079
      4 C         139.7485  139.5184  167.2200 C.ar    1  UNL1        0.1031
      5 C         139.9764  140.0268  168.6127 C.ar    1  UNL1        0.1280
      6 N         138.9159  140.2839  169.6420 N.pl3   1  UNL1       -0.3427
      7 H         137.9699  140.1172  169.4263 H       1  UNL1        0.1437
      8 H         139.1660  140.6192  170.5332 H       1  UNL1        0.1437
      9 C         141.3216  138.9428  165.1369 C.ar    1  UNL1        0.0197
     10 C         140.8180  137.6001  164.6972 C.ar    1  UNL1        0.0031
     11 C         141.0575  137.1326  163.2922 C.ar    1  UNL1        0.0193
     12 C         141.8007  138.0078  162.3269 C.ar    1  UNL1        0.0844
     13 N         142.0402  137.5403  160.9219 N.ar    1  UNL1       -0.2117
     14 C         142.7834  138.4155  159.9567 C.ar    1  UNL1        0.2247
     15 C         143.2871  139.7583  160.3965 C.ar    1  UNL1        0.0577
     16 C         143.0476  140.2257  161.8015 C.ar    1  UNL1        0.0063
     17 C         142.3044  139.3505  162.7667 C.ar    1  UNL1        0.0180
     18 C         142.0648  139.8180  164.1717 C.ar    1  UNL1        0.0031
     19 O         143.0229  137.9480  158.5517 O.3     1  UNL1       -0.4640
     20 C         141.8622  137.7154  157.6304 C.3     1  UNL1        0.1678
     21 C         141.3114  137.1662  156.3479 C.3     1  UNL1        0.0473
     22 C         140.4026  137.8618  157.3174 C.3     1  UNL1        0.0473
     23 C         138.4202  139.1779  166.6121 C.2     1  UNL1        0.2470
     24 N         137.9699  139.8678  165.3587 N.am    1  UNL1       -0.3252
     25 O         137.5421  138.1472  167.2577 O.2     1  UNL1       -0.2702
     26 H         138.5462  140.5443  164.9349 H       1  UNL1        0.1453
     27 H         137.0980  139.6443  164.9598 H       1  UNL1        0.1453
     28 C         142.9356  139.7934  170.8817 C.3     1  UNL1        0.0265
     29 C         142.1238  140.7324  170.0395 C.3     1  UNL1        0.1091
     30 C         141.9850  142.1709  170.4413 C.3     1  UNL1        0.0561
     31 C         143.1521  143.1034  170.3060 C.3     1  UNL1        0.1392
     32 O         143.4298  144.1175  171.3757 O.3     1  UNL1       -0.3819
     33 H         142.7075  144.7644  171.4033 H       1  UNL1        0.2104
@<TRIPOS>BOND
     1    28    29    1
     2    29    30    1
     3    30    31    1
     4    31    32    1
     5    29     1    1
     6     1     2   ar
     7     2     3   ar
     8     3     9    1
     9     9    10   ar
    10    10    11   ar
    11    11    12   ar
    12    12    13   ar
    13    13    14   ar
    14    14    19    1
    15    19    20    1
    16    20    21    1
    17    21    22    1
    18    14    15   ar
    19    15    16   ar
    20    16    17   ar
    21    17    18   ar
    22     3     4   ar
    23     4    23    1
    24    23    24   am
    25    23    25    2
    26     4     5   ar
    27     5     6    1
    28     5     1   ar
    29    18     9   ar
    30    17    12   ar
    31    22    20    1
    32    32    33    1
    33    24    26    1
    34    24    27    1
    35     6     7    1
    36     6     8    1
@<TRIPOS>MOLECULE
*****
 33 36 0 0 0
SMALL
GASTEIGER

@<TRIPOS>ATOM
      1 N         140.2799  141.6161  167.0405 N.ar    1  UNL1       -0.2399
      2 N         140.6195  142.7129  166.0753 N.ar    1  UNL1       -0.1681
      3 C         139.8667  142.4602  164.8027 C.ar    1  UNL1        0.1079
      4 C         139.0618  141.2071  164.9814 C.ar    1  UNL1        0.1031
      5 C         139.3171  140.6854  166.3644 C.ar    1  UNL1        0.1280
      6 N         138.7154  139.4500  166.9657 N.pl3   1  UNL1       -0.3427
      7 H         138.0900  138.9009  166.4397 H       1  UNL1        0.1437
      8 H         138.9458  139.1883  167.8864 H       1  UNL1        0.1437
      9 C         139.9111  143.3111  163.5682 C.ar    1  UNL1        0.0197
     10 C         139.2146  144.6394  163.5474 C.ar    1  UNL1        0.0031
     11 C         139.2590  145.4903  162.3129 C.ar    1  UNL1        0.0193
     12 C         139.9999  145.0128  161.0992 C.ar    1  UNL1        0.0844
     13 N         140.0443  145.8638  159.8647 N.ar    1  UNL1       -0.2117
     14 C         140.7852  145.3864  158.6509 C.ar    1  UNL1        0.2247
     15 C         141.4817  144.0580  158.6717 C.ar    1  UNL1        0.0577
     16 C         141.4373  143.2071  159.9062 C.ar    1  UNL1        0.0063
     17 C         140.6964  143.6845  161.1200 C.ar    1  UNL1        0.0180
     18 C         140.6520  142.8337  162.3544 C.ar    1  UNL1        0.0031
     19 O         140.8296  146.2372  157.4164 O.3     1  UNL1       -0.4640
     20 C         139.7161  146.1631  156.4140 C.3     1  UNL1        0.1678
     21 C         138.7593  146.8462  155.4824 C.3     1  UNL1        0.0473
     22 C         138.7445  145.3517  155.6094 C.3     1  UNL1        0.0473
     23 C         138.1599  140.5849  163.9570 C.2     1  UNL1        0.2470
     24 N         136.9652  141.3387  163.4526 N.am    1  UNL1       -0.3252
     25 O         138.4528  139.2087  163.4368 O.2     1  UNL1       -0.2702
     26 H         136.7730  142.2419  163.7940 H       1  UNL1        0.1453
     27 H         136.3734  140.9303  162.7803 H       1  UNL1        0.1453
     28 C         142.2777  141.2659  168.6640 C.3     1  UNL1        0.0265
     29 C         140.8099  141.4748  168.4366 C.3     1  UNL1        0.1091
     30 C         139.8719  141.5422  169.6052 C.3     1  UNL1        0.0561
     31 C         140.0458  142.6085  170.6458 C.3     1  UNL1        0.1392
     32 O         140.5013  142.2414  172.0270 O.3     1  UNL1       -0.3819
     33 H         139.8207  141.7021  172.4592 H       1  UNL1        0.2104
@<TRIPOS>BOND
     1    28    29    1
     2    29    30    1
     3    30    31    1
     4    31    32    1
     5    29     1    1
     6     1     2   ar
     7     2     3   ar
     8     3     9    1
     9     9    10   ar
    10    10    11   ar
    11    11    12   ar
    12    12    13   ar
    13    13    14   ar
    14    14    19    1
    15    19    20    1
    16    20    21    1
    17    21    22    1
    18    14    15   ar
    19    15    16   ar
    20    16    17   ar
    21    17    18   ar
    22     3     4   ar
    23     4    23    1
    24    23    24   am
    25    23    25    2
    26     4     5   ar
    27     5     6    1
    28     5     1   ar
    29    18     9   ar
    30    17    12   ar
    31    22    20    1
    32    32    33    1
    33    24    26    1
    34    24    27    1
    35     6     7    1
    36     6     8    1
@<TRIPOS>MOLECULE
*****
 33 36 0 0 0
SMALL
GASTEIGER

@<TRIPOS>ATOM
      1 N         140.8804  140.2653  168.2625 N.ar    1  UNL1       -0.2399
      2 N         140.3798  140.2079  166.8497 N.ar    1  UNL1       -0.1681
      3 C         141.4121  139.5031  166.0204 C.ar    1  UNL1        0.1079
      4 C         142.5507  139.1248  166.9207 C.ar    1  UNL1        0.1031
      5 C         142.2221  139.5959  168.3064 C.ar    1  UNL1        0.1280
      6 N         143.0839  139.4271  169.5225 N.pl3   1  UNL1       -0.3427
      7 H         143.9534  138.9712  169.4502 H       1  UNL1        0.1437
      8 H         142.7799  139.7724  170.3930 H       1  UNL1        0.1437
      9 C         141.3217  139.2253  164.5491 C.ar    1  UNL1        0.0197
     10 C         141.0643  137.8296  164.0638 C.ar    1  UNL1        0.0031
     11 C         140.9739  137.5518  162.5925 C.ar    1  UNL1        0.0193
     12 C         141.1408  138.6699  161.6066 C.ar    1  UNL1        0.0844
     13 N         141.0503  138.3921  160.1352 N.ar    1  UNL1       -0.2117
     14 C         141.2171  139.5102  159.1493 C.ar    1  UNL1        0.2247
     15 C         141.4745  140.9060  159.6346 C.ar    1  UNL1        0.0577
     16 C         141.5649  141.1837  161.1059 C.ar    1  UNL1        0.0063
     17 C         141.3981  140.0657  162.0919 C.ar    1  UNL1        0.0180
     18 C         141.4885  140.3434  163.5631 C.ar    1  UNL1        0.0031
     19 O         141.1267  139.2325  157.6780 O.3     1  UNL1       -0.4640
     20 C         142.0078  138.1899  157.0560 C.3     1  UNL1        0.1678
     21 C         143.0605  137.8053  156.0591 C.3     1  UNL1        0.0473
     22 C         142.4810  136.7689  156.9755 C.3     1  UNL1        0.0473
     23 C         143.7987  138.4024  166.5079 C.2     1  UNL1        0.2470
     24 N         144.5030  138.7860  165.2403 N.am    1  UNL1       -0.3252
     25 O         144.3425  137.2962  167.3627 O.2     1  UNL1       -0.2702
     26 H         144.1461  139.5120  164.6792 H       1  UNL1        0.1453
     27 H         145.3221  138.3118  164.9694 H       1  UNL1        0.1453
     28 C         138.9318  140.2332  169.9806 C.3     1  UNL1        0.0265
     29 C         140.1650  140.8834  169.4270 C.3     1  UNL1        0.1091
     30 C         140.6828  142.1518  170.0378 C.3     1  UNL1        0.0561
     31 C         141.7207  142.0942  171.1192 C.3     1  UNL1        0.1392
     32 O         141.9451  140.8189  171.8762 O.3     1  UNL1       -0.3819
     33 H         141.1549  140.6096  172.3984 H       1  UNL1        0.2104
@<TRIPOS>BOND
     1    28    29    1
     2    29    30    1
     3    30    31    1
     4    31    32    1
     5    29     1    1
     6     1     2   ar
     7     2     3   ar
     8     3     9    1
     9     9    10   ar
    10    10    11   ar
    11    11    12   ar
    12    12    13   ar
    13    13    14   ar
    14    14    19    1
    15    19    20    1
    16    20    21    1
    17    21    22    1
    18    14    15   ar
    19    15    16   ar
    20    16    17   ar
    21    17    18   ar
    22     3     4   ar
    23     4    23    1
    24    23    24   am
    25    23    25    2
    26     4     5   ar
    27     5     6    1
    28     5     1   ar
    29    18     9   ar
    30    17    12   ar
    31    22    20    1
    32    32    33    1
    33    24    26    1
    34    24    27    1
    35     6     7    1
    36     6     8    1
@<TRIPOS>MOLECULE
*****
 33 36 0 0 0
SMALL
GASTEIGER

@<TRIPOS>ATOM
      1 N         141.4111  141.5107  168.1668 N.ar    1  UNL1       -0.2399
      2 N         141.0948  142.5152  167.0986 N.ar    1  UNL1       -0.1681
      3 C         141.8440  142.1252  165.8590 C.ar    1  UNL1        0.1079
      4 C         142.6235  140.8797  166.1611 C.ar    1  UNL1        0.1031
      5 C         142.3559  140.4999  167.5874 C.ar    1  UNL1        0.1280
      6 N         142.9321  139.3171  168.3077 N.pl3   1  UNL1       -0.3427
      7 H         143.5470  138.7072  167.8396 H       1  UNL1        0.1437
      8 H         142.6952  139.1506  169.2487 H       1  UNL1        0.1437
      9 C         141.8183  142.8529  164.5476 C.ar    1  UNL1        0.0197
     10 C         142.8272  143.9266  164.2658 C.ar    1  UNL1        0.0031
     11 C         142.8014  144.6543  162.9544 C.ar    1  UNL1        0.0193
     12 C         141.7669  144.3083  161.9249 C.ar    1  UNL1        0.0844
     13 N         141.7412  145.0361  160.6134 N.ar    1  UNL1       -0.2117
     14 C         140.7066  144.6901  159.5839 C.ar    1  UNL1        0.2247
     15 C         139.6977  143.6164  159.8658 C.ar    1  UNL1        0.0577
     16 C         139.7234  142.8887  161.1771 C.ar    1  UNL1        0.0063
     17 C         140.7580  143.2347  162.2067 C.ar    1  UNL1        0.0180
     18 C         140.7838  142.5070  163.5181 C.ar    1  UNL1        0.0031
     19 O         140.6808  145.4178  158.2725 O.3     1  UNL1       -0.4640
     20 C         140.1834  144.7238  157.0392 C.3     1  UNL1        0.1678
     21 C         140.4596  144.0274  155.7397 C.3     1  UNL1        0.0473
     22 C         139.0457  144.2180  156.2027 C.3     1  UNL1        0.0473
     23 C         143.5141  140.1432  165.2049 C.2     1  UNL1        0.2470
     24 N         143.2063  138.7224  164.8359 N.am    1  UNL1       -0.3252
     25 O         144.7126  140.8278  164.6175 O.2     1  UNL1       -0.2702
     26 H         142.4196  138.2730  165.2213 H       1  UNL1        0.1453
     27 H         143.7908  138.2391  164.2082 H       1  UNL1        0.1453
     28 C         139.6424  140.7322  169.9033 C.3     1  UNL1        0.0265
     29 C         140.8766  141.5161  169.5683 C.3     1  UNL1        0.1091
     30 C         141.5762  142.3055  170.6348 C.3     1  UNL1        0.0561
     31 C         142.9049  142.9400  170.3483 C.3     1  UNL1        0.1392
     32 O         143.4348  144.0121  171.2538 O.3     1  UNL1       -0.3819
     33 H         142.8651  144.7950  171.1959 H       1  UNL1        0.2104
@<TRIPOS>BOND
     1    28    29    1
     2    29    30    1
     3    30    31    1
     4    31    32    1
     5    29     1    1
     6     1     2   ar
     7     2     3   ar
     8     3     9    1
     9     9    10   ar
    10    10    11   ar
    11    11    12   ar
    12    12    13   ar
    13    13    14   ar
    14    14    19    1
    15    19    20    1
    16    20    21    1
    17    21    22    1
    18    14    15   ar
    19    15    16   ar
    20    16    17   ar
    21    17    18   ar
    22     3     4   ar
    23     4    23    1
    24    23    24   am
    25    23    25    2
    26     4     5   ar
    27     5     6    1
    28     5     1   ar
    29    18     9   ar
    30    17    12   ar
    31    22    20    1
    32    32    33    1
    33    24    26    1
    34    24    27    1
    35     6     7    1
    36     6     8    1
