@<TRIPOS>MOLECULE
*****
 29 34 0 0 0
SMALL
GASTEIGER

@<TRIPOS>ATOM
      1 O         143.6325  142.2498  166.5512 O.2     1  UNL1       -0.2443
      2 C         143.5473  141.7825  165.1284 C.ar    1  UNL1        0.3532
      3 N         143.2613  140.3409  164.8283 N.ar    1  UNL1       -0.2702
      4 C         143.1761  139.8736  163.4056 C.ar    1  UNL1        0.0965
      5 S         142.9102  138.5243  162.8065 S.2     1  UNL1       -0.0728
      6 C         142.9467  138.6646  161.3136 C.ar    1  UNL1        0.0210
      7 C         143.2352  140.1007  160.9899 C.ar    1  UNL1       -0.0126
      8 C         143.3769  140.8478  162.2828 C.ar    1  UNL1        0.0545
      9 C         143.6630  142.2894  162.5829 C.ar    1  UNL1        0.1717
     10 N         143.9040  143.4714  161.6914 N.ar    1  UNL1       -0.2032
     11 C         144.1381  144.6693  162.5633 C.ar    1  UNL1        0.2214
     12 N         144.0418  144.2276  163.9936 N.ar    1  UNL1       -0.1372
     13 N         143.7481  142.7567  164.0057 N.ar    1  UNL1       -0.1606
     14 C         143.3315  140.5424  159.5596 C.3     1  UNL1        0.0441
     15 C         143.1393  139.5481  158.4531 C.3     1  UNL1        0.0772
     16 N         142.8509  138.1122  158.7767 N.3     1  UNL1       -0.2652
     17 C         142.7546  137.6704  160.2069 C.3     1  UNL1        0.1055
     18 C         142.6587  137.1179  157.6701 C.3     1  UNL1        0.1175
     19 C         141.7098  136.9856  156.5160 C.3     1  UNL1        0.1606
     20 O         142.3871  135.7118  156.1051 O.3     1  UNL1       -0.3507
     21 C         143.3360  135.8441  157.2592 C.3     1  UNL1        0.1606
     22 C         143.0605  139.3667  165.9511 C.3     1  UNL1        0.1378
     23 C         141.9845  139.6063  166.9685 C.ar    1  UNL1        0.0006
     24 C         140.5697  139.8333  166.5247 C.ar    1  UNL1       -0.0015
     25 C         139.4938  140.0729  167.5420 C.ar    1  UNL1        0.0111
     26 C         139.8327  140.0855  169.0032 C.ar    1  UNL1        0.0577
     27 CL        138.7568  140.3251  170.0206 Cl      1  UNL1       -0.0822
     28 C         141.2474  139.8585  169.4470 C.ar    1  UNL1        0.0111
     29 C         142.3234  139.6189  168.4296 C.ar    1  UNL1       -0.0015
@<TRIPOS>BOND
     1     1     2    2
     2     2     3   ar
     3     3    22    1
     4    22    23    1
     5    23    24   ar
     6    24    25   ar
     7    25    26   ar
     8    26    27    1
     9    26    28   ar
    10    28    29   ar
    11     3     4   ar
    12     4     5   ar
    13     5     6   ar
    14     6     7   ar
    15     7     8   ar
    16     8     9   ar
    17     9    10   ar
    18    10    11   ar
    19    11    12   ar
    20    12    13   ar
    21     7    14    1
    22    14    15    1
    23    15    16    1
    24    16    18    1
    25    18    19    1
    26    19    20    1
    27    20    21    1
    28    16    17    1
    29    13     2   ar
    30    21    18    1
    31    29    23   ar
    32     8     4   ar
    33    13     9   ar
    34    17     6    1
@<TRIPOS>MOLECULE
*****
 29 34 0 0 0
SMALL
GASTEIGER

@<TRIPOS>ATOM
      1 O         140.1552  143.2630  166.4955 O.2     1  UNL1       -0.2443
      2 C         140.6649  143.1595  165.0886 C.ar    1  UNL1        0.3532
      3 N         142.1347  143.0038  164.8329 N.ar    1  UNL1       -0.2702
      4 C         142.6444  142.9002  163.4261 C.ar    1  UNL1        0.0965
      5 S         144.0282  142.7418  162.8689 S.2     1  UNL1       -0.0728
      6 C         143.9232  142.6960  161.3733 C.ar    1  UNL1        0.0210
      7 C         142.4746  142.8261  161.0060 C.ar    1  UNL1       -0.0126
      8 C         141.6843  142.9524  162.2747 C.ar    1  UNL1        0.0545
      9 C         140.2145  143.1080  162.5303 C.ar    1  UNL1        0.1717
     10 N         139.0378  143.1901  161.6037 N.ar    1  UNL1       -0.2032
     11 C         137.8008  143.3444  162.4380 C.ar    1  UNL1        0.2214
     12 N         138.2130  143.3577  163.8802 N.ar    1  UNL1       -0.1372
     13 N         139.7048  143.2116  163.9373 N.ar    1  UNL1       -0.1606
     14 C         142.0624  142.8129  159.5639 C.3     1  UNL1        0.0441
     15 C         143.0987  142.6695  158.4889 C.3     1  UNL1        0.0772
     16 N         144.5472  142.5393  158.8562 N.3     1  UNL1       -0.2652
     17 C         144.9595  142.5526  160.2983 C.3     1  UNL1        0.1055
     18 C         145.5835  142.3959  157.7811 C.3     1  UNL1        0.1175
     19 C         146.9610  142.9451  157.5557 C.3     1  UNL1        0.1606
     20 O         147.0489  142.1930  156.2608 O.3     1  UNL1       -0.3507
     21 C         145.6714  141.6438  156.4862 C.3     1  UNL1        0.1606
     22 C         143.0948  142.9517  165.9843 C.3     1  UNL1        0.1378
     23 C         142.9652  141.8750  167.0206 C.ar    1  UNL1        0.0006
     24 C         142.7057  140.4582  166.6020 C.ar    1  UNL1       -0.0015
     25 C         142.5761  139.3815  167.6383 C.ar    1  UNL1        0.0111
     26 C         142.7060  139.7218  169.0935 C.ar    1  UNL1        0.0577
     27 CL        142.5764  138.6452  170.1298 Cl      1  UNL1       -0.0822
     28 C         142.9654  141.1385  169.5122 C.ar    1  UNL1        0.0111
     29 C         143.0950  142.2152  168.4758 C.ar    1  UNL1       -0.0015
@<TRIPOS>BOND
     1     1     2    2
     2     2     3   ar
     3     3    22    1
     4    22    23    1
     5    23    24   ar
     6    24    25   ar
     7    25    26   ar
     8    26    27    1
     9    26    28   ar
    10    28    29   ar
    11     3     4   ar
    12     4     5   ar
    13     5     6   ar
    14     6     7   ar
    15     7     8   ar
    16     8     9   ar
    17     9    10   ar
    18    10    11   ar
    19    11    12   ar
    20    12    13   ar
    21     7    14    1
    22    14    15    1
    23    15    16    1
    24    16    18    1
    25    18    19    1
    26    19    20    1
    27    20    21    1
    28    16    17    1
    29    13     2   ar
    30    21    18    1
    31    29    23   ar
    32     8     4   ar
    33    13     9   ar
    34    17     6    1
@<TRIPOS>MOLECULE
*****
 29 34 0 0 0
SMALL
GASTEIGER

@<TRIPOS>ATOM
      1 O         143.6825  140.8964  165.4473 O.2     1  UNL1       -0.2443
      2 C         142.9285  141.3626  164.2373 C.ar    1  UNL1        0.3532
      3 N         141.9335  140.4543  163.5776 N.ar    1  UNL1       -0.2702
      4 C         141.1795  140.9204  162.3677 C.ar    1  UNL1        0.0965
      5 S         140.1446  140.2529  161.5111 S.2     1  UNL1       -0.0728
      6 C         139.7460  141.2148  160.4315 C.ar    1  UNL1        0.0210
      7 C         140.5344  142.4768  160.6207 C.ar    1  UNL1       -0.0126
      8 C         141.4203  142.2949  161.8173 C.ar    1  UNL1        0.0545
      9 C         142.4152  143.2032  162.4769 C.ar    1  UNL1        0.1717
     10 N         142.8607  144.6007  162.1630 N.ar    1  UNL1       -0.2032
     11 C         143.8902  144.9982  163.1790 C.ar    1  UNL1        0.2214
     12 N         144.0809  143.8464  164.1208 N.ar    1  UNL1       -0.1372
     13 N         143.1693  142.7370  163.6869 N.ar    1  UNL1       -0.1606
     14 C         140.3437  143.6286  159.6788 C.3     1  UNL1        0.0441
     15 C         139.3646  143.5184  158.5478 C.3     1  UNL1        0.0772
     16 N         138.5762  142.2564  158.3586 N.3     1  UNL1       -0.2652
     17 C         138.7668  141.1046  159.3004 C.3     1  UNL1        0.1055
     18 C         137.5971  142.1462  157.2275 C.3     1  UNL1        0.1175
     19 C         136.6790  141.0741  156.7200 C.3     1  UNL1        0.1606
     20 O         136.2125  141.9905  155.6279 O.3     1  UNL1       -0.3507
     21 C         137.1306  143.0627  156.1355 C.3     1  UNL1        0.1606
     22 C         141.6927  139.0798  164.1281 C.3     1  UNL1        0.1378
     23 C         140.4926  138.8162  164.9884 C.ar    1  UNL1        0.0006
     24 C         140.1635  139.7429  166.1211 C.ar    1  UNL1       -0.0015
     25 C         138.9634  139.4793  166.9815 C.ar    1  UNL1        0.0111
     26 C         138.0923  138.2889  166.7091 C.ar    1  UNL1        0.0577
     27 CL        136.8922  138.0252  167.5695 Cl      1  UNL1       -0.0822
     28 C         138.4213  137.3622  165.5765 C.ar    1  UNL1        0.0111
     29 C         139.6215  137.6259  164.7161 C.ar    1  UNL1       -0.0015
@<TRIPOS>BOND
     1     1     2    2
     2     2     3   ar
     3     3    22    1
     4    22    23    1
     5    23    24   ar
     6    24    25   ar
     7    25    26   ar
     8    26    27    1
     9    26    28   ar
    10    28    29   ar
    11     3     4   ar
    12     4     5   ar
    13     5     6   ar
    14     6     7   ar
    15     7     8   ar
    16     8     9   ar
    17     9    10   ar
    18    10    11   ar
    19    11    12   ar
    20    12    13   ar
    21     7    14    1
    22    14    15    1
    23    15    16    1
    24    16    18    1
    25    18    19    1
    26    19    20    1
    27    20    21    1
    28    16    17    1
    29    13     2   ar
    30    21    18    1
    31    29    23   ar
    32     8     4   ar
    33    13     9   ar
    34    17     6    1
@<TRIPOS>MOLECULE
*****
 29 34 0 0 0
SMALL
GASTEIGER

@<TRIPOS>ATOM
      1 O         138.9525  140.0671  166.5815 O.2     1  UNL1       -0.2443
      2 C         139.1439  140.5317  165.1681 C.ar    1  UNL1        0.3532
      3 N         139.4815  141.9664  164.8895 N.ar    1  UNL1       -0.2702
      4 C         139.6728  142.4310  163.4763 C.ar    1  UNL1        0.0965
      5 S         140.0085  143.7737  162.8978 S.2     1  UNL1       -0.0728
      6 C         140.0696  143.6335  161.4057 C.ar    1  UNL1        0.0210
      7 C         139.7717  142.2041  161.0618 C.ar    1  UNL1       -0.0126
      8 C         139.5265  141.4609  162.3415 C.ar    1  UNL1        0.0545
      9 C         139.1888  140.0263  162.6201 C.ar    1  UNL1        0.1717
     10 N         138.9821  138.8494  161.7132 N.ar    1  UNL1       -0.2032
     11 C         138.6631  137.6575  162.5662 C.ar    1  UNL1        0.2214
     12 N         138.6726  138.0976  164.0001 N.ar    1  UNL1       -0.1372
     13 N         138.9975  139.5616  164.0334 N.ar    1  UNL1       -0.1606
     14 C         139.7622  141.7640  159.6279 C.3     1  UNL1        0.0441
     15 C         140.0506  142.7532  158.5378 C.3     1  UNL1        0.0772
     16 N         140.3485  144.1825  158.8816 N.3     1  UNL1       -0.2652
     17 C         140.3581  144.6227  160.3155 C.3     1  UNL1        0.1055
     18 C         140.6370  145.1717  157.7915 C.3     1  UNL1        0.1175
     19 C         139.8139  145.8791  156.7561 C.3     1  UNL1        0.1606
     20 O         141.0450  146.5705  156.2498 O.3     1  UNL1       -0.3507
     21 C         141.8681  145.8631  157.2851 C.3     1  UNL1        0.1606
     22 C         139.6279  142.9364  166.0243 C.3     1  UNL1        0.1378
     23 C         140.7538  142.7811  167.0032 C.ar    1  UNL1        0.0006
     24 C         142.1322  142.4477  166.5143 C.ar    1  UNL1       -0.0015
     25 C         143.2581  142.2924  167.4931 C.ar    1  UNL1        0.0111
     26 C         143.0056  142.4704  168.9610 C.ar    1  UNL1        0.0577
     27 CL        144.1315  142.3151  169.9399 Cl      1  UNL1       -0.0822
     28 C         141.6273  142.8038  169.4499 C.ar    1  UNL1        0.0111
     29 C         140.5014  142.9591  168.4710 C.ar    1  UNL1       -0.0015
@<TRIPOS>BOND
     1     1     2    2
     2     2     3   ar
     3     3    22    1
     4    22    23    1
     5    23    24   ar
     6    24    25   ar
     7    25    26   ar
     8    26    27    1
     9    26    28   ar
    10    28    29   ar
    11     3     4   ar
    12     4     5   ar
    13     5     6   ar
    14     6     7   ar
    15     7     8   ar
    16     8     9   ar
    17     9    10   ar
    18    10    11   ar
    19    11    12   ar
    20    12    13   ar
    21     7    14    1
    22    14    15    1
    23    15    16    1
    24    16    18    1
    25    18    19    1
    26    19    20    1
    27    20    21    1
    28    16    17    1
    29    13     2   ar
    30    21    18    1
    31    29    23   ar
    32     8     4   ar
    33    13     9   ar
    34    17     6    1
@<TRIPOS>MOLECULE
*****
 29 34 0 0 0
SMALL
GASTEIGER

@<TRIPOS>ATOM
      1 O         138.8614  142.7568  158.8682 O.2     1  UNL1       -0.2443
      2 C         139.0891  142.7295  160.3505 C.ar    1  UNL1        0.3532
      3 N         138.9727  141.4374  161.1035 N.ar    1  UNL1       -0.2702
      4 C         139.2005  141.4101  162.5858 C.ar    1  UNL1        0.0965
      5 S         139.1552  140.2947  163.5879 S.2     1  UNL1       -0.0728
      6 C         139.4715  140.8701  164.9365 C.ar    1  UNL1        0.0210
      7 C         139.7122  142.3411  164.7680 C.ar    1  UNL1       -0.0126
      8 C         139.5447  142.6748  163.3152 C.ar    1  UNL1        0.0545
      9 C         139.6612  143.9669  162.5623 C.ar    1  UNL1        0.1717
     10 N         139.9845  145.3623  163.0074 N.ar    1  UNL1       -0.2032
     11 C         139.9566  146.2521  161.8002 C.ar    1  UNL1        0.2214
     12 N         139.6159  145.4066  160.6089 N.ar    1  UNL1       -0.1372
     13 N         139.4334  143.9942  161.0799 N.ar    1  UNL1       -0.1606
     14 C         140.0528  143.1866  165.9593 C.3     1  UNL1        0.0441
     15 C         140.1527  142.5612  167.3190 C.3     1  UNL1        0.0772
     16 N         139.9120  141.0902  167.4874 N.3     1  UNL1       -0.2652
     17 C         139.5714  140.2447  166.2963 C.3     1  UNL1        0.1055
     18 C         140.0119  140.4648  168.8472 C.3     1  UNL1        0.1175
     19 C         141.0919  139.7612  169.6143 C.3     1  UNL1        0.1606
     20 O         140.1531  139.5805  170.7703 O.3     1  UNL1       -0.3507
     21 C         139.0731  140.2841  170.0032 C.3     1  UNL1        0.1606
     22 C         138.6284  140.1727  160.3740 C.3     1  UNL1        0.1378
     23 C         139.6871  139.4378  159.6065 C.ar    1  UNL1        0.0006
     24 C         139.4689  139.1023  158.1608 C.ar    1  UNL1       -0.0015
     25 C         140.5275  138.3674  157.3933 C.ar    1  UNL1        0.0111
     26 C         141.8045  137.9679  158.0715 C.ar    1  UNL1        0.0577
     27 CL        142.8632  137.2330  157.3039 Cl      1  UNL1       -0.0822
     28 C         142.0228  138.3034  159.5170 C.ar    1  UNL1        0.0111
     29 C         140.9641  139.0384  160.2846 C.ar    1  UNL1       -0.0015
@<TRIPOS>BOND
     1     1     2    2
     2     2     3   ar
     3     3    22    1
     4    22    23    1
     5    23    24   ar
     6    24    25   ar
     7    25    26   ar
     8    26    27    1
     9    26    28   ar
    10    28    29   ar
    11     3     4   ar
    12     4     5   ar
    13     5     6   ar
    14     6     7   ar
    15     7     8   ar
    16     8     9   ar
    17     9    10   ar
    18    10    11   ar
    19    11    12   ar
    20    12    13   ar
    21     7    14    1
    22    14    15    1
    23    15    16    1
    24    16    18    1
    25    18    19    1
    26    19    20    1
    27    20    21    1
    28    16    17    1
    29    13     2   ar
    30    21    18    1
    31    29    23   ar
    32     8     4   ar
    33    13     9   ar
    34    17     6    1
@<TRIPOS>MOLECULE
*****
 29 34 0 0 0
SMALL
GASTEIGER

@<TRIPOS>ATOM
      1 O         141.0268  140.5958  159.6577 O.2     1  UNL1       -0.2443
      2 C         140.7351  140.5207  161.1271 C.ar    1  UNL1        0.3532
      3 N         141.4037  141.4727  162.0741 N.ar    1  UNL1       -0.2702
      4 C         141.1120  141.3976  163.5435 C.ar    1  UNL1        0.0965
      5 S         141.6157  142.1966  164.7089 S.2     1  UNL1       -0.0728
      6 C         140.9668  141.6633  165.9516 C.ar    1  UNL1        0.0210
      7 C         140.0619  140.5347  165.5543 C.ar    1  UNL1       -0.0126
      8 C         140.1517  140.3706  164.0660 C.ar    1  UNL1        0.0545
      9 C         139.4831  139.4186  163.1191 C.ar    1  UNL1        0.1717
     10 N         138.4986  138.3087  163.3401 N.ar    1  UNL1       -0.2032
     11 C         138.1818  137.6979  162.0073 C.ar    1  UNL1        0.2214
     12 N         138.9705  138.4302  160.9625 N.ar    1  UNL1       -0.1372
     13 N         139.7748  139.4937  161.6496 N.ar    1  UNL1       -0.1606
     14 C         139.2732  139.8024  166.5991 C.3     1  UNL1        0.0441
     15 C         139.3892  140.1985  168.0412 C.3     1  UNL1        0.0772
     16 N         140.2940  141.3270  168.4384 N.3     1  UNL1       -0.2652
     17 C         141.0828  142.0594  167.3938 C.3     1  UNL1        0.1055
     18 C         140.4100  141.7232  169.8806 C.3     1  UNL1        0.1175
     19 C         139.8956  142.8600  170.7129 C.3     1  UNL1        0.1606
     20 O         140.5742  142.2832  171.9200 O.3     1  UNL1       -0.3507
     21 C         141.0886  141.1464  171.0877 C.3     1  UNL1        0.1606
     22 C         142.3640  142.4998  161.5515 C.3     1  UNL1        0.1378
     23 C         141.9291  143.4576  160.4822 C.ar    1  UNL1        0.0006
     24 C         142.6821  143.5281  159.1868 C.ar    1  UNL1       -0.0015
     25 C         142.2472  144.4860  158.1176 C.ar    1  UNL1        0.0111
     26 C         141.0591  145.3734  158.3437 C.ar    1  UNL1        0.0577
     27 CL        140.6242  146.3313  157.2745 Cl      1  UNL1       -0.0822
     28 C         140.3061  145.3030  159.6390 C.ar    1  UNL1        0.0111
     29 C         140.7411  144.3451  160.7083 C.ar    1  UNL1       -0.0015
@<TRIPOS>BOND
     1     1     2    2
     2     2     3   ar
     3     3    22    1
     4    22    23    1
     5    23    24   ar
     6    24    25   ar
     7    25    26   ar
     8    26    27    1
     9    26    28   ar
    10    28    29   ar
    11     3     4   ar
    12     4     5   ar
    13     5     6   ar
    14     6     7   ar
    15     7     8   ar
    16     8     9   ar
    17     9    10   ar
    18    10    11   ar
    19    11    12   ar
    20    12    13   ar
    21     7    14    1
    22    14    15    1
    23    15    16    1
    24    16    18    1
    25    18    19    1
    26    19    20    1
    27    20    21    1
    28    16    17    1
    29    13     2   ar
    30    21    18    1
    31    29    23   ar
    32     8     4   ar
    33    13     9   ar
    34    17     6    1
@<TRIPOS>MOLECULE
*****
 29 34 0 0 0
SMALL
GASTEIGER

@<TRIPOS>ATOM
      1 O         141.5189  142.7157  164.9437 O.2     1  UNL1       -0.2443
      2 C         141.7216  142.0861  163.5974 C.ar    1  UNL1        0.3532
      3 N         141.9850  140.6133  163.4902 N.ar    1  UNL1       -0.2702
      4 C         142.1877  139.9838  162.1440 C.ar    1  UNL1        0.0965
      5 S         142.4624  138.5687  161.7287 S.2     1  UNL1       -0.0728
      6 C         142.5716  138.5374  160.2331 C.ar    1  UNL1        0.0210
      7 C         142.3644  139.9331  159.7239 C.ar    1  UNL1       -0.0126
      8 C         142.1272  140.8270  160.9048 C.ar    1  UNL1        0.0545
      9 C         141.8638  142.2998  161.0121 C.ar    1  UNL1        0.1717
     10 N         141.7486  143.3769  159.9745 N.ar    1  UNL1       -0.2032
     11 C         141.4746  144.6722  160.6796 C.ar    1  UNL1        0.2214
     12 N         141.4205  144.3956  162.1529 N.ar    1  UNL1       -0.1372
     13 N         141.6610  142.9293  162.3584 N.ar    1  UNL1       -0.1606
     14 C         142.4185  140.2097  158.2506 C.3     1  UNL1        0.0441
     15 C         142.6798  139.0907  157.2865 C.3     1  UNL1        0.0772
     16 N         142.8870  137.6950  157.7957 N.3     1  UNL1       -0.2652
     17 C         142.8329  137.4184  159.2689 C.3     1  UNL1        0.1055
     18 C         143.1483  136.5760  156.8315 C.3     1  UNL1        0.1175
     19 C         144.0998  136.3576  155.6928 C.3     1  UNL1        0.1606
     20 O         143.5178  134.9934  155.4681 O.3     1  UNL1       -0.3507
     21 C         142.5663  135.2118  156.6069 C.3     1  UNL1        0.1606
     22 C         142.0456  139.7701  164.7294 C.3     1  UNL1        0.1378
     23 C         140.7780  139.3048  165.3825 C.ar    1  UNL1        0.0006
     24 C         140.2894  139.9732  166.6333 C.ar    1  UNL1       -0.0015
     25 C         139.0218  139.5079  167.2864 C.ar    1  UNL1        0.0111
     26 C         138.2427  138.3739  166.6886 C.ar    1  UNL1        0.0577
     27 CL        136.9750  137.9085  167.3417 Cl      1  UNL1       -0.0822
     28 C         138.7311  137.7054  165.4379 C.ar    1  UNL1        0.0111
     29 C         139.9988  138.1709  164.7848 C.ar    1  UNL1       -0.0015
@<TRIPOS>BOND
     1     1     2    2
     2     2     3   ar
     3     3    22    1
     4    22    23    1
     5    23    24   ar
     6    24    25   ar
     7    25    26   ar
     8    26    27    1
     9    26    28   ar
    10    28    29   ar
    11     3     4   ar
    12     4     5   ar
    13     5     6   ar
    14     6     7   ar
    15     7     8   ar
    16     8     9   ar
    17     9    10   ar
    18    10    11   ar
    19    11    12   ar
    20    12    13   ar
    21     7    14    1
    22    14    15    1
    23    15    16    1
    24    16    18    1
    25    18    19    1
    26    19    20    1
    27    20    21    1
    28    16    17    1
    29    13     2   ar
    30    21    18    1
    31    29    23   ar
    32     8     4   ar
    33    13     9   ar
    34    17     6    1
@<TRIPOS>MOLECULE
*****
 29 34 0 0 0
SMALL
GASTEIGER

@<TRIPOS>ATOM
      1 O         142.8226  143.9638  159.0407 O.2     1  UNL1       -0.2443
      2 C         142.4080  143.6649  160.4509 C.ar    1  UNL1        0.3532
      3 N         143.0268  142.5134  161.1865 N.ar    1  UNL1       -0.2702
      4 C         142.6123  142.2145  162.5967 C.ar    1  UNL1        0.0965
      5 S         143.0438  141.1546  163.5665 S.2     1  UNL1       -0.0728
      6 C         142.2770  141.3521  164.8405 C.ar    1  UNL1        0.0210
      7 C         141.3716  142.5341  164.6580 C.ar    1  UNL1       -0.0126
      8 C         141.5787  143.0670  163.2714 C.ar    1  UNL1        0.0545
      9 C         140.9599  144.2185  162.5357 C.ar    1  UNL1        0.1717
     10 N         139.9245  145.2265  162.9381 N.ar    1  UNL1       -0.2032
     11 C         139.6992  146.1484  161.7765 C.ar    1  UNL1        0.2214
     12 N         140.5954  145.7102  160.6563 N.ar    1  UNL1       -0.1372
     13 N         141.3745  144.5174  161.1255 N.ar    1  UNL1       -0.1606
     14 C         140.4754  142.9723  165.7783 C.3     1  UNL1        0.0441
     15 C         140.4847  142.2286  167.0809 C.3     1  UNL1        0.0772
     16 N         141.3901  141.0467  167.2633 N.3     1  UNL1       -0.2652
     17 C         142.2862  140.6084  166.1432 C.3     1  UNL1        0.1055
     18 C         141.3993  140.3029  168.5660 C.3     1  UNL1        0.1175
     19 C         142.3877  139.4319  169.2831 C.3     1  UNL1        0.1606
     20 O         141.4122  139.2513  170.4082 O.3     1  UNL1       -0.3507
     21 C         140.4238  140.1223  169.6911 C.3     1  UNL1        0.1606
     22 C         144.0603  141.6609  160.5118 C.3     1  UNL1        0.1378
     23 C         143.6378  140.4781  159.6918 C.ar    1  UNL1        0.0006
     24 C         143.2906  139.1837  160.3657 C.ar    1  UNL1       -0.0015
     25 C         142.8680  138.0009  159.5457 C.ar    1  UNL1        0.0111
     26 C         142.7927  138.1125  158.0517 C.ar    1  UNL1        0.0577
     27 CL        142.3701  136.9297  157.2317 Cl      1  UNL1       -0.0822
     28 C         143.1399  139.4068  157.3778 C.ar    1  UNL1        0.0111
     29 C         143.5625  140.5896  158.1979 C.ar    1  UNL1       -0.0015
@<TRIPOS>BOND
     1     1     2    2
     2     2     3   ar
     3     3    22    1
     4    22    23    1
     5    23    24   ar
     6    24    25   ar
     7    25    26   ar
     8    26    27    1
     9    26    28   ar
    10    28    29   ar
    11     3     4   ar
    12     4     5   ar
    13     5     6   ar
    14     6     7   ar
    15     7     8   ar
    16     8     9   ar
    17     9    10   ar
    18    10    11   ar
    19    11    12   ar
    20    12    13   ar
    21     7    14    1
    22    14    15    1
    23    15    16    1
    24    16    18    1
    25    18    19    1
    26    19    20    1
    27    20    21    1
    28    16    17    1
    29    13     2   ar
    30    21    18    1
    31    29    23   ar
    32     8     4   ar
    33    13     9   ar
    34    17     6    1
@<TRIPOS>MOLECULE
*****
 29 34 0 0 0
SMALL
GASTEIGER

@<TRIPOS>ATOM
      1 O         139.9673  141.2083  159.6128 O.2     1  UNL1       -0.2443
      2 C         139.8669  141.0161  161.0971 C.ar    1  UNL1        0.3532
      3 N         140.4378  142.0454  162.0270 N.ar    1  UNL1       -0.2702
      4 C         140.3374  141.8532  163.5111 C.ar    1  UNL1        0.0965
      5 S         140.8032  142.6903  164.6655 S.2     1  UNL1       -0.0728
      6 C         140.4197  141.9862  165.9332 C.ar    1  UNL1        0.0210
      7 C         139.7169  140.7139  165.5624 C.ar    1  UNL1       -0.0126
      8 C         139.6660  140.6317  164.0656 C.ar    1  UNL1        0.0545
      9 C         139.0951  139.6025  163.1357 C.ar    1  UNL1        0.1717
     10 N         138.3819  138.3073  163.3882 N.ar    1  UNL1       -0.2032
     11 C         138.0416  137.6990  162.0600 C.ar    1  UNL1        0.2214
     12 N         138.5444  138.6182  160.9866 N.ar    1  UNL1       -0.1372
     13 N         139.1955  139.7947  161.6514 N.ar    1  UNL1       -0.1606
     14 C         139.2140  139.7947  166.6358 C.3     1  UNL1        0.0441
     15 C         139.4140  140.1476  168.0799 C.3     1  UNL1        0.0772
     16 N         140.1168  141.4199  168.4506 N.3     1  UNL1       -0.2652
     17 C         140.6197  142.3392  167.3773 C.3     1  UNL1        0.1055
     18 C         140.3168  141.7728  169.8948 C.3     1  UNL1        0.1175
     19 C         141.0619  141.1597  171.0431 C.3     1  UNL1        0.1606
     20 O         140.5995  142.2720  171.9370 O.3     1  UNL1       -0.3507
     21 C         139.8544  142.8852  170.7886 C.3     1  UNL1        0.1606
     22 C         141.1092  143.2669  161.4725 C.3     1  UNL1        0.1378
     23 C         142.2836  143.1237  160.5505 C.ar    1  UNL1        0.0006
     24 C         142.1850  143.5982  159.1309 C.ar    1  UNL1       -0.0015
     25 C         143.3595  143.4551  158.2089 C.ar    1  UNL1        0.0111
     26 C         144.6327  142.8375  158.7065 C.ar    1  UNL1        0.0577
     27 CL        145.8071  142.6943  157.7844 Cl      1  UNL1       -0.0822
     28 C         144.7314  142.3630  160.1259 C.ar    1  UNL1        0.0111
     29 C         143.5568  142.5061  161.0480 C.ar    1  UNL1       -0.0015
@<TRIPOS>BOND
     1     1     2    2
     2     2     3   ar
     3     3    22    1
     4    22    23    1
     5    23    24   ar
     6    24    25   ar
     7    25    26   ar
     8    26    27    1
     9    26    28   ar
    10    28    29   ar
    11     3     4   ar
    12     4     5   ar
    13     5     6   ar
    14     6     7   ar
    15     7     8   ar
    16     8     9   ar
    17     9    10   ar
    18    10    11   ar
    19    11    12   ar
    20    12    13   ar
    21     7    14    1
    22    14    15    1
    23    15    16    1
    24    16    18    1
    25    18    19    1
    26    19    20    1
    27    20    21    1
    28    16    17    1
    29    13     2   ar
    30    21    18    1
    31    29    23   ar
    32     8     4   ar
    33    13     9   ar
    34    17     6    1
