@<TRIPOS>MOLECULE
*****
 23 25 0 0 0
SMALL
GASTEIGER

@<TRIPOS>ATOM
      1 N         139.4462  145.0009  162.2232 N.ar    1  UNL1       -0.2432
      2 C         140.1740  144.2122  163.2712 C.ar    1  UNL1        0.0971
      3 C         139.1520  143.5179  164.1219 C.ar    1  UNL1        0.0397
      4 C         137.7926  143.8776  163.5996 C.ar    1  UNL1        0.1216
      5 N         137.9744  144.7941  162.4262 N.ar    1  UNL1       -0.1673
      6 C         139.4390  142.6214  165.2898 C.ar    1  UNL1        0.0061
      7 C         139.0372  141.1770  165.2430 C.ar    1  UNL1        0.0012
      8 C         139.3243  140.2805  166.4109 C.ar    1  UNL1        0.0145
      9 C         140.0131  140.8285  167.6255 C.ar    1  UNL1        0.0917
     10 CL        140.3001  139.9319  168.7934 Cl      1  UNL1       -0.0791
     11 C         140.4149  142.2729  167.6722 C.ar    1  UNL1        0.1547
     12 C         140.1279  143.1693  166.5044 C.ar    1  UNL1        0.0381
     13 O         141.1037  142.8208  168.8868 O.3     1  UNL1       -0.4228
     14 C         140.3068  143.5117  169.9533 C.3     1  UNL1        0.5087
     15 F         140.4689  144.9865  170.1739 F       1  UNL1       -0.1550
     16 F         139.3477  142.7277  170.7994 F       1  UNL1       -0.1550
     17 C         140.0790  145.8477  161.1591 C.3     1  UNL1        0.1746
     18 C         143.6291  143.2064  158.2779 C.3     1  UNL1        0.1537
     19 N         142.4108  143.9849  158.6775 N.ar    1  UNL1       -0.2476
     20 C         141.3015  144.4164  157.7647 C.ar    1  UNL1        0.0964
     21 C         140.2931  145.1667  158.5832 C.ar    1  UNL1        0.0387
     22 C         140.7790  145.1990  160.0019 C.ar    1  UNL1        0.1047
     23 N         142.0878  144.4686  160.0602 N.ar    1  UNL1       -0.1716
@<TRIPOS>BOND
     1    18    19    1
     2    19    20   ar
     3    20    21   ar
     4    21    22   ar
     5    22    17    1
     6    17     1    1
     7     1     2   ar
     8     2     3   ar
     9     3     6    1
    10     6     7   ar
    11     7     8   ar
    12     8     9   ar
    13     9    10    1
    14     9    11   ar
    15    11    13    1
    16    13    14    1
    17    14    15    1
    18    14    16    1
    19    11    12   ar
    20     3     4   ar
    21     4     5   ar
    22    22    23   ar
    23    23    19   ar
    24     5     1   ar
    25    12     6   ar
@<TRIPOS>MOLECULE
*****
 23 25 0 0 0
SMALL
GASTEIGER

@<TRIPOS>ATOM
      1 N         138.2793  141.7436  163.6832 N.ar    1  UNL1       -0.2432
      2 C         139.1845  142.0239  164.8460 C.ar    1  UNL1        0.0971
      3 C         139.4802  140.7210  165.5278 C.ar    1  UNL1        0.0397
      4 C         138.7579  139.6354  164.7863 C.ar    1  UNL1        0.1216
      5 N         138.0157  140.2674  163.6463 N.ar    1  UNL1       -0.1673
      6 C         140.3463  140.5360  166.7385 C.ar    1  UNL1        0.0061
      7 C         141.5743  139.6783  166.6583 C.ar    1  UNL1        0.0012
      8 C         142.4403  139.4934  167.8690 C.ar    1  UNL1        0.0145
      9 C         142.0784  140.1661  169.1599 C.ar    1  UNL1        0.0917
     10 CL        142.9444  139.9812  170.3706 Cl      1  UNL1       -0.0791
     11 C         140.8504  141.0238  169.2401 C.ar    1  UNL1        0.1547
     12 C         139.9844  141.2087  168.0294 C.ar    1  UNL1        0.0381
     13 O         140.4885  141.6966  170.5310 O.3     1  UNL1       -0.4228
     14 C         139.9871  143.1102  170.5251 C.3     1  UNL1        0.5087
     15 F         138.8780  143.5165  171.4498 F       1  UNL1       -0.1550
     16 F         140.5947  144.1177  169.5947 F       1  UNL1       -0.1550
     17 C         137.7336  142.7609  162.7254 C.3     1  UNL1        0.1746
     18 C         140.8948  145.3816  159.4058 C.3     1  UNL1        0.1537
     19 N         140.0929  145.0097  160.6176 N.ar    1  UNL1       -0.2476
     20 C         139.9758  145.8139  161.8784 C.ar    1  UNL1        0.0964
     21 C         139.0778  145.0694  162.8214 C.ar    1  UNL1        0.0387
     22 C         138.6398  143.8050  162.1435 C.ar    1  UNL1        0.1047
     23 N         139.2672  143.7681  160.7815 N.ar    1  UNL1       -0.1716
@<TRIPOS>BOND
     1    18    19    1
     2    19    20   ar
     3    20    21   ar
     4    21    22   ar
     5    22    17    1
     6    17     1    1
     7     1     2   ar
     8     2     3   ar
     9     3     6    1
    10     6     7   ar
    11     7     8   ar
    12     8     9   ar
    13     9    10    1
    14     9    11   ar
    15    11    13    1
    16    13    14    1
    17    14    15    1
    18    14    16    1
    19    11    12   ar
    20     3     4   ar
    21     4     5   ar
    22    22    23   ar
    23    23    19   ar
    24     5     1   ar
    25    12     6   ar
@<TRIPOS>MOLECULE
*****
 23 25 0 0 0
SMALL
GASTEIGER

@<TRIPOS>ATOM
      1 N         139.4495  145.0883  162.2147 N.ar    1  UNL1       -0.2432
      2 C         140.2198  144.2821  163.2180 C.ar    1  UNL1        0.0971
      3 C         139.2338  143.5672  164.0936 C.ar    1  UNL1        0.0397
      4 C         137.8540  143.9315  163.6313 C.ar    1  UNL1        0.1216
      5 N         137.9874  144.8716  162.4701 N.ar    1  UNL1       -0.1673
      6 C         139.5686  142.6491  165.2316 C.ar    1  UNL1        0.0061
      7 C         140.0766  143.2128  166.5255 C.ar    1  UNL1        0.0012
      8 C         140.4114  142.2947  167.6634 C.ar    1  UNL1        0.0145
      9 C         140.2382  140.8129  167.5075 C.ar    1  UNL1        0.0917
     10 CL        140.5731  139.8948  168.6455 Cl      1  UNL1       -0.0791
     11 C         139.7303  140.2492  166.2136 C.ar    1  UNL1        0.1547
     12 C         139.3954  141.1673  165.0757 C.ar    1  UNL1        0.0381
     13 O         139.5571  138.7674  166.0577 O.3     1  UNL1       -0.4228
     14 C         138.2442  138.1260  166.3966 C.3     1  UNL1        0.5087
     15 F         137.2144  138.8907  167.1743 F       1  UNL1       -0.1550
     16 F         137.9610  136.7198  165.9577 F       1  UNL1       -0.1550
     17 C         140.0381  145.9584  161.1439 C.3     1  UNL1        0.1746
     18 C         143.5409  143.2967  158.2239 C.3     1  UNL1        0.1537
     19 N         142.3499  144.1126  158.6311 N.ar    1  UNL1       -0.2476
     20 C         141.2897  144.6444  157.7129 C.ar    1  UNL1        0.0964
     21 C         140.2947  145.4005  158.5424 C.ar    1  UNL1        0.0387
     22 C         140.7399  145.3361  159.9733 C.ar    1  UNL1        0.1047
     23 N         142.0100  144.5402  160.0282 N.ar    1  UNL1       -0.1716
@<TRIPOS>BOND
     1    18    19    1
     2    19    20   ar
     3    20    21   ar
     4    21    22   ar
     5    22    17    1
     6    17     1    1
     7     1     2   ar
     8     2     3   ar
     9     3     6    1
    10     6     7   ar
    11     7     8   ar
    12     8     9   ar
    13     9    10    1
    14     9    11   ar
    15    11    13    1
    16    13    14    1
    17    14    15    1
    18    14    16    1
    19    11    12   ar
    20     3     4   ar
    21     4     5   ar
    22    22    23   ar
    23    23    19   ar
    24     5     1   ar
    25    12     6   ar
@<TRIPOS>MOLECULE
*****
 23 25 0 0 0
SMALL
GASTEIGER

@<TRIPOS>ATOM
      1 N         143.1366  143.0070  163.8889 N.ar    1  UNL1       -0.2432
      2 C         141.9275  142.4504  164.5804 C.ar    1  UNL1        0.0971
      3 C         142.2506  142.3109  166.0385 C.ar    1  UNL1        0.0397
      4 C         143.6594  142.7814  166.2482 C.ar    1  UNL1        0.1216
      5 N         144.2070  143.2116  164.9197 N.ar    1  UNL1       -0.1673
      6 C         141.3269  141.7921  167.1006 C.ar    1  UNL1        0.0061
      7 C         141.3230  142.4197  168.4630 C.ar    1  UNL1        0.0012
      8 C         140.3994  141.9009  169.5249 C.ar    1  UNL1        0.0145
      9 C         139.4798  140.7545  169.2245 C.ar    1  UNL1        0.0917
     10 CL        138.5562  140.2357  170.2865 Cl      1  UNL1       -0.0791
     11 C         139.4838  140.1270  167.8621 C.ar    1  UNL1        0.1547
     12 C         140.4073  140.6458  166.8002 C.ar    1  UNL1        0.0381
     13 O         138.5642  138.9807  167.5617 O.3     1  UNL1       -0.4228
     14 C         138.2366  138.6348  166.1394 C.3     1  UNL1        0.5087
     15 F         138.4169  137.2288  165.6488 F       1  UNL1       -0.1550
     16 F         137.7288  139.6949  165.2075 F       1  UNL1       -0.1550
     17 C         143.2547  143.3064  162.4238 C.3     1  UNL1        0.1746
     18 C         140.3671  145.6998  158.7071 C.3     1  UNL1        0.1537
     19 N         140.9002  145.2664  160.0405 N.ar    1  UNL1       -0.2476
     20 C         140.3933  145.7122  161.3800 C.ar    1  UNL1        0.0964
     21 C         141.2136  145.0323  162.4358 C.ar    1  UNL1        0.0387
     22 C         142.2275  144.1662  161.7489 C.ar    1  UNL1        0.1047
     23 N         142.0338  144.3108  160.2685 N.ar    1  UNL1       -0.1716
@<TRIPOS>BOND
     1    18    19    1
     2    19    20   ar
     3    20    21   ar
     4    21    22   ar
     5    22    17    1
     6    17     1    1
     7     1     2   ar
     8     2     3   ar
     9     3     6    1
    10     6     7   ar
    11     7     8   ar
    12     8     9   ar
    13     9    10    1
    14     9    11   ar
    15    11    13    1
    16    13    14    1
    17    14    15    1
    18    14    16    1
    19    11    12   ar
    20     3     4   ar
    21     4     5   ar
    22    22    23   ar
    23    23    19   ar
    24     5     1   ar
    25    12     6   ar
@<TRIPOS>MOLECULE
*****
 23 25 0 0 0
SMALL
GASTEIGER

@<TRIPOS>ATOM
      1 N         140.1122  144.9345  163.3659 N.ar    1  UNL1       -0.2432
      2 C         141.0087  143.9073  163.9912 C.ar    1  UNL1        0.0971
      3 C         140.3486  143.4183  165.2463 C.ar    1  UNL1        0.0397
      4 C         139.0441  144.1434  165.3966 C.ar    1  UNL1        0.1216
      5 N         138.8980  145.0805  164.2345 N.ar    1  UNL1       -0.1673
      6 C         140.8967  142.3856  166.1860 C.ar    1  UNL1        0.0061
      7 C         142.3771  142.1594  166.2712 C.ar    1  UNL1        0.0012
      8 C         142.9252  141.1267  167.2109 C.ar    1  UNL1        0.0145
      9 C         141.9928  140.3202  168.0655 C.ar    1  UNL1        0.0917
     10 CL        142.5410  139.2875  169.0053 Cl      1  UNL1       -0.0791
     11 C         140.5125  140.5464  167.9803 C.ar    1  UNL1        0.1547
     12 C         139.9644  141.5791  167.0406 C.ar    1  UNL1        0.0381
     13 O         139.5801  139.7398  168.8349 O.3     1  UNL1       -0.4228
     14 C         138.7495  140.4171  169.8844 C.3     1  UNL1        0.5087
     15 F         139.0968  141.8048  170.3356 F       1  UNL1       -0.1550
     16 F         137.5717  139.7066  170.4826 F       1  UNL1       -0.1550
     17 C         140.3825  145.6842  162.0951 C.3     1  UNL1        0.1746
     18 C         138.6557  142.5710  158.1955 C.3     1  UNL1        0.1537
     19 N         139.4720  143.5546  158.9804 N.ar    1  UNL1       -0.2476
     20 C         140.7002  144.2665  158.4959 C.ar    1  UNL1        0.0964
     21 C         141.1907  145.1509  159.6037 C.ar    1  UNL1        0.0387
     22 C         140.2657  144.9856  160.7729 C.ar    1  UNL1        0.1047
     23 N         139.2035  143.9991  160.3877 N.ar    1  UNL1       -0.1716
@<TRIPOS>BOND
     1    18    19    1
     2    19    20   ar
     3    20    21   ar
     4    21    22   ar
     5    22    17    1
     6    17     1    1
     7     1     2   ar
     8     2     3   ar
     9     3     6    1
    10     6     7   ar
    11     7     8   ar
    12     8     9   ar
    13     9    10    1
    14     9    11   ar
    15    11    13    1
    16    13    14    1
    17    14    15    1
    18    14    16    1
    19    11    12   ar
    20     3     4   ar
    21     4     5   ar
    22    22    23   ar
    23    23    19   ar
    24     5     1   ar
    25    12     6   ar
@<TRIPOS>MOLECULE
*****
 23 25 0 0 0
SMALL
GASTEIGER

@<TRIPOS>ATOM
      1 N         139.6088  144.7161  161.7719 N.ar    1  UNL1       -0.2432
      2 C         139.9706  143.3272  162.2077 C.ar    1  UNL1        0.0971
      3 C         138.8249  142.7784  163.0053 C.ar    1  UNL1        0.0397
      4 C         137.7550  143.8282  163.0624 C.ar    1  UNL1        0.1216
      5 N         138.2394  145.0258  162.3001 N.ar    1  UNL1       -0.1673
      6 C         138.7604  141.4186  163.6352 C.ar    1  UNL1        0.0061
      7 C         138.1694  141.2533  165.0039 C.ar    1  UNL1        0.0012
      8 C         138.1050  139.8935  165.6337 C.ar    1  UNL1        0.0145
      9 C         138.6314  138.6990  164.8949 C.ar    1  UNL1        0.0917
     10 CL        138.5669  137.3391  165.5248 Cl      1  UNL1       -0.0791
     11 C         139.2224  138.8642  163.5262 C.ar    1  UNL1        0.1547
     12 C         139.2869  140.2240  162.8963 C.ar    1  UNL1        0.0381
     13 O         139.7489  137.6697  162.7873 O.3     1  UNL1       -0.4228
     14 C         141.1454  137.1855  163.0427 C.3     1  UNL1        0.5087
     15 F         141.4702  136.4737  164.3225 F       1  UNL1       -0.1550
     16 F         142.2172  137.4130  162.0182 F       1  UNL1       -0.1550
     17 C         140.4659  145.6343  160.9518 C.3     1  UNL1        0.1746
     18 C         144.0016  142.9568  158.0864 C.3     1  UNL1        0.1537
     19 N         142.8706  143.8633  158.4726 N.ar    1  UNL1       -0.2476
     20 C         142.0193  144.6618  157.5304 C.ar    1  UNL1        0.0964
     21 C         141.0150  145.4224  158.3444 C.ar    1  UNL1        0.0387
     22 C         141.2454  145.0940  159.7898 C.ar    1  UNL1        0.1047
     23 N         142.3922  144.1304  159.8690 N.ar    1  UNL1       -0.1716
@<TRIPOS>BOND
     1    18    19    1
     2    19    20   ar
     3    20    21   ar
     4    21    22   ar
     5    22    17    1
     6    17     1    1
     7     1     2   ar
     8     2     3   ar
     9     3     6    1
    10     6     7   ar
    11     7     8   ar
    12     8     9   ar
    13     9    10    1
    14     9    11   ar
    15    11    13    1
    16    13    14    1
    17    14    15    1
    18    14    16    1
    19    11    12   ar
    20     3     4   ar
    21     4     5   ar
    22    22    23   ar
    23    23    19   ar
    24     5     1   ar
    25    12     6   ar
@<TRIPOS>MOLECULE
*****
 23 25 0 0 0
SMALL
GASTEIGER

@<TRIPOS>ATOM
      1 N         139.1617  144.7322  162.9825 N.ar    1  UNL1       -0.2432
      2 C         140.0519  144.1179  164.0218 C.ar    1  UNL1        0.0971
      3 C         139.2654  143.0619  164.7403 C.ar    1  UNL1        0.0397
      4 C         137.8891  143.0235  164.1450 C.ar    1  UNL1        0.1216
      5 N         137.8250  144.0558  163.0586 N.ar    1  UNL1       -0.1673
      6 C         139.7671  142.1961  165.8578 C.ar    1  UNL1        0.0061
      7 C         139.2437  140.7996  166.0177 C.ar    1  UNL1        0.0012
      8 C         139.7454  139.9340  167.1352 C.ar    1  UNL1        0.0145
      9 C         140.7706  140.4649  168.0929 C.ar    1  UNL1        0.0917
     10 CL        141.2723  139.5992  169.2105 Cl      1  UNL1       -0.0791
     11 C         141.2940  141.8614  167.9331 C.ar    1  UNL1        0.1547
     12 C         140.7923  142.7271  166.8155 C.ar    1  UNL1        0.0381
     13 O         142.3191  142.3924  168.8908 O.3     1  UNL1       -0.4228
     14 C         141.8844  143.0359  170.1740 C.3     1  UNL1        0.5087
     15 F         141.2425  144.3915  170.1535 F       1  UNL1       -0.1550
     16 F         142.0916  142.3238  171.4780 F       1  UNL1       -0.1550
     17 C         139.5415  145.8301  162.0336 C.3     1  UNL1        0.1746
     18 C         140.7891  145.6117  156.9076 C.3     1  UNL1        0.1537
     19 N         140.8159  145.4015  158.3925 N.ar    1  UNL1       -0.2476
     20 C         141.8261  144.5921  159.1505 C.ar    1  UNL1        0.0964
     21 C         141.4717  144.6542  160.6066 C.ar    1  UNL1        0.0387
     22 C         140.2424  145.5019  160.7487 C.ar    1  UNL1        0.1047
     23 N         139.8371  145.9638  159.3804 N.ar    1  UNL1       -0.1716
@<TRIPOS>BOND
     1    18    19    1
     2    19    20   ar
     3    20    21   ar
     4    21    22   ar
     5    22    17    1
     6    17     1    1
     7     1     2   ar
     8     2     3   ar
     9     3     6    1
    10     6     7   ar
    11     7     8   ar
    12     8     9   ar
    13     9    10    1
    14     9    11   ar
    15    11    13    1
    16    13    14    1
    17    14    15    1
    18    14    16    1
    19    11    12   ar
    20     3     4   ar
    21     4     5   ar
    22    22    23   ar
    23    23    19   ar
    24     5     1   ar
    25    12     6   ar
@<TRIPOS>MOLECULE
*****
 23 25 0 0 0
SMALL
GASTEIGER

@<TRIPOS>ATOM
      1 N         139.1800  139.5363  167.3486 N.ar    1  UNL1       -0.2432
      2 C         140.3879  139.6329  166.4646 C.ar    1  UNL1        0.0971
      3 C         140.0539  138.9895  165.1514 C.ar    1  UNL1        0.0397
      4 C         138.6395  138.4952  165.2238 C.ar    1  UNL1        0.1216
      5 N         138.0994  138.8331  166.5817 N.ar    1  UNL1       -0.1673
      6 C         140.9730  138.8626  163.9726 C.ar    1  UNL1        0.0061
      7 C         140.6543  137.8922  162.8742 C.ar    1  UNL1        0.0012
      8 C         141.5733  137.7654  161.6955 C.ar    1  UNL1        0.0145
      9 C         142.8110  138.6090  161.6153 C.ar    1  UNL1        0.0917
     10 CL        143.7301  138.4821  160.4366 Cl      1  UNL1       -0.0791
     11 C         143.1297  139.5794  162.7138 C.ar    1  UNL1        0.1547
     12 C         142.2107  139.7062  163.8925 C.ar    1  UNL1        0.0381
     13 O         144.3675  140.4229  162.6337 O.3     1  UNL1       -0.4228
     14 C         145.2856  140.5217  163.8156 C.3     1  UNL1        0.5087
     15 F         146.0209  141.8001  164.0895 F       1  UNL1       -0.1550
     16 F         145.4686  139.3419  164.7239 F       1  UNL1       -0.1550
     17 C         139.0716  140.0522  168.7529 C.3     1  UNL1        0.1746
     18 C         142.9162  143.1650  170.5996 C.3     1  UNL1        0.1537
     19 N         142.0646  141.9619  170.3215 N.ar    1  UNL1       -0.2476
     20 C         142.3027  140.5743  170.8390 C.ar    1  UNL1        0.0964
     21 C         141.2106  139.6901  170.3145 C.ar    1  UNL1        0.0387
     22 C         140.2974  140.5311  169.4727 C.ar    1  UNL1        0.1047
     23 N         140.8251  141.9352  169.4770 N.ar    1  UNL1       -0.1716
@<TRIPOS>BOND
     1    18    19    1
     2    19    20   ar
     3    20    21   ar
     4    21    22   ar
     5    22    17    1
     6    17     1    1
     7     1     2   ar
     8     2     3   ar
     9     3     6    1
    10     6     7   ar
    11     7     8   ar
    12     8     9   ar
    13     9    10    1
    14     9    11   ar
    15    11    13    1
    16    13    14    1
    17    14    15    1
    18    14    16    1
    19    11    12   ar
    20     3     4   ar
    21     4     5   ar
    22    22    23   ar
    23    23    19   ar
    24     5     1   ar
    25    12     6   ar
@<TRIPOS>MOLECULE
*****
 23 25 0 0 0
SMALL
GASTEIGER

@<TRIPOS>ATOM
      1 N         143.7436  138.7243  162.7616 N.ar    1  UNL1       -0.2432
      2 C         142.6047  138.5726  163.7258 C.ar    1  UNL1        0.0971
      3 C         142.8073  139.5552  164.8409 C.ar    1  UNL1        0.0397
      4 C         144.0716  140.3142  164.5658 C.ar    1  UNL1        0.1216
      5 N         144.6503  139.8007  163.2808 N.ar    1  UNL1       -0.1673
      6 C         141.9043  139.7454  166.0235 C.ar    1  UNL1        0.0061
      7 C         142.4731  140.1937  167.3370 C.ar    1  UNL1        0.0012
      8 C         141.5701  140.3839  168.5195 C.ar    1  UNL1        0.0145
      9 C         140.0983  140.1259  168.3884 C.ar    1  UNL1        0.0917
     10 CL        139.1952  140.3161  169.5710 Cl      1  UNL1       -0.0791
     11 C         139.5295  139.6776  167.0749 C.ar    1  UNL1        0.1547
     12 C         140.4325  139.4874  165.8924 C.ar    1  UNL1        0.0381
     13 O         138.0577  139.4195  166.9438 O.3     1  UNL1       -0.4228
     14 C         137.5387  138.0123  166.9586 C.3     1  UNL1        0.5087
     15 F         138.1423  136.9807  166.0523 F       1  UNL1       -0.1550
     16 F         136.4161  137.6365  167.8799 F       1  UNL1       -0.1550
     17 C         143.9413  137.9377  161.4997 C.3     1  UNL1        0.1746
     18 C         141.6284  137.5406  156.7697 C.3     1  UNL1        0.1537
     19 N         142.0433  138.0554  158.1160 N.ar    1  UNL1       -0.2476
     20 C         141.6003  139.3446  158.7420 C.ar    1  UNL1        0.0964
     21 C         142.2573  139.4574  160.0856 C.ar    1  UNL1        0.0387
     22 C         143.1065  138.2380  160.2902 C.ar    1  UNL1        0.1047
     23 N         142.9743  137.3715  159.0730 N.ar    1  UNL1       -0.1716
@<TRIPOS>BOND
     1    18    19    1
     2    19    20   ar
     3    20    21   ar
     4    21    22   ar
     5    22    17    1
     6    17     1    1
     7     1     2   ar
     8     2     3   ar
     9     3     6    1
    10     6     7   ar
    11     7     8   ar
    12     8     9   ar
    13     9    10    1
    14     9    11   ar
    15    11    13    1
    16    13    14    1
    17    14    15    1
    18    14    16    1
    19    11    12   ar
    20     3     4   ar
    21     4     5   ar
    22    22    23   ar
    23    23    19   ar
    24     5     1   ar
    25    12     6   ar
