@<TRIPOS>MOLECULE
*****
 19 20 0 0 0
SMALL
GASTEIGER

@<TRIPOS>ATOM
      1 C         138.7830  143.3415  163.9087 C.ar    1  UNL1        0.0290
      2 C         138.5519  144.4645  162.9416 C.ar    1  UNL1        0.0115
      3 C         139.6855  145.3686  162.5573 C.ar    1  UNL1        0.0576
      4 CL        139.4544  146.4916  161.5901 Cl      1  UNL1       -0.0823
      5 C         141.0501  145.1496  163.1401 C.ar    1  UNL1        0.0145
      6 C         141.2812  144.0266  164.1073 C.ar    1  UNL1        0.0381
      7 C         140.1476  143.1225  164.4915 C.ar    1  UNL1        0.1426
      8 C         137.6494  142.4374  164.2930 C.3     1  UNL1        0.0987
      9 C         137.6892  140.5910  162.4657 C.3     1  UNL1        0.0861
     10 N         136.9417  141.6339  163.2426 N.3     1  UNL1       -0.2925
     11 H         136.1689  141.1573  163.7074 H       1  UNL1        0.1236
     12 O         140.3788  141.9995  165.4587 O.3     1  UNL1       -0.4538
     13 C         141.0371  142.2702  166.7790 C.ar    1  UNL1        0.1453
     14 C         140.2431  142.8621  167.9057 C.ar    1  UNL1        0.0384
     15 C         140.9015  143.1329  169.2260 C.ar    1  UNL1        0.0145
     16 C         142.3539  142.8118  169.4196 C.ar    1  UNL1        0.0579
     17 CL        143.0123  143.0826  170.7399 Cl      1  UNL1       -0.0822
     18 C         143.1479  142.2200  168.2931 C.ar    1  UNL1        0.0145
     19 C         142.4895  141.9492  166.9727 C.ar    1  UNL1        0.0384
@<TRIPOS>BOND
     1     9    10    1
     2    10     8    1
     3     8     1    1
     4     1     2   ar
     5     2     3   ar
     6     3     4    1
     7     3     5   ar
     8     5     6   ar
     9     6     7   ar
    10     7    12    1
    11    12    13    1
    12    13    14   ar
    13    14    15   ar
    14    15    16   ar
    15    16    17    1
    16    16    18   ar
    17    18    19   ar
    18     7     1   ar
    19    19    13   ar
    20    10    11    1
@<TRIPOS>MOLECULE
*****
 19 20 0 0 0
SMALL
GASTEIGER

@<TRIPOS>ATOM
      1 C         139.7737  140.6696  167.6665 C.ar    1  UNL1        0.0290
      2 C         138.7443  139.6419  168.0325 C.ar    1  UNL1        0.0115
      3 C         138.1028  138.8088  166.9626 C.ar    1  UNL1        0.0576
      4 CL        137.0734  137.7810  167.3287 Cl      1  UNL1       -0.0823
      5 C         138.4908  139.0035  165.5269 C.ar    1  UNL1        0.0145
      6 C         139.5202  140.0313  165.1609 C.ar    1  UNL1        0.0381
      7 C         140.1617  140.8643  166.2307 C.ar    1  UNL1        0.1426
      8 C         140.4152  141.5027  168.7363 C.3     1  UNL1        0.0987
      9 C         140.5307  143.8557  169.8317 C.3     1  UNL1        0.0861
     10 N         140.4480  142.9966  168.6049 N.3     1  UNL1       -0.2925
     11 H         141.2599  143.2239  168.0310 H       1  UNL1        0.1236
     12 O         141.1911  141.8921  165.8646 O.3     1  UNL1       -0.4538
     13 C         140.8455  142.9907  164.9036 C.ar    1  UNL1        0.1453
     14 C         139.5440  143.7242  165.0395 C.ar    1  UNL1        0.0384
     15 C         139.1984  144.8227  164.0785 C.ar    1  UNL1        0.0145
     16 C         140.1541  145.1879  162.9816 C.ar    1  UNL1        0.0579
     17 CL        139.8084  146.2865  162.0205 Cl      1  UNL1       -0.0822
     18 C         141.4554  144.4545  162.8456 C.ar    1  UNL1        0.0145
     19 C         141.8012  143.3558  163.8067 C.ar    1  UNL1        0.0384
@<TRIPOS>BOND
     1     9    10    1
     2    10     8    1
     3     8     1    1
     4     1     2   ar
     5     2     3   ar
     6     3     4    1
     7     3     5   ar
     8     5     6   ar
     9     6     7   ar
    10     7    12    1
    11    12    13    1
    12    13    14   ar
    13    14    15   ar
    14    15    16   ar
    15    16    17    1
    16    16    18   ar
    17    18    19   ar
    18     7     1   ar
    19    19    13   ar
    20    10    11    1
@<TRIPOS>MOLECULE
*****
 19 20 0 0 0
SMALL
GASTEIGER

@<TRIPOS>ATOM
      1 C         139.7241  140.7866  167.5305 C.ar    1  UNL1        0.0290
      2 C         138.8896  139.5914  167.8841 C.ar    1  UNL1        0.0115
      3 C         138.0934  138.8920  166.8226 C.ar    1  UNL1        0.0576
      4 CL        137.2589  137.6967  167.1764 Cl      1  UNL1       -0.0823
      5 C         138.1317  139.3877  165.4075 C.ar    1  UNL1        0.0145
      6 C         138.9661  140.5829  165.0538 C.ar    1  UNL1        0.0381
      7 C         139.7624  141.2823  166.1153 C.ar    1  UNL1        0.1426
      8 C         140.5203  141.4860  168.5920 C.3     1  UNL1        0.0987
      9 C         140.8930  143.6686  169.9512 C.3     1  UNL1        0.0861
     10 N         140.5097  142.9838  168.6729 N.3     1  UNL1       -0.2925
     11 H         141.1497  143.3220  167.9543 H       1  UNL1        0.1236
     12 O         140.5969  142.4776  165.7616 O.3     1  UNL1       -0.4538
     13 C         141.9780  142.2904  165.2070 C.ar    1  UNL1        0.1453
     14 C         142.7052  143.4522  164.5975 C.ar    1  UNL1        0.0384
     15 C         144.0863  143.2650  164.0430 C.ar    1  UNL1        0.0145
     16 C         144.7402  141.9162  164.0979 C.ar    1  UNL1        0.0579
     17 CL        146.1213  141.7291  163.5434 Cl      1  UNL1       -0.0822
     18 C         144.0130  140.7545  164.7075 C.ar    1  UNL1        0.0145
     19 C         142.6319  140.9416  165.2620 C.ar    1  UNL1        0.0384
@<TRIPOS>BOND
     1     9    10    1
     2    10     8    1
     3     8     1    1
     4     1     2   ar
     5     2     3   ar
     6     3     4    1
     7     3     5   ar
     8     5     6   ar
     9     6     7   ar
    10     7    12    1
    11    12    13    1
    12    13    14   ar
    13    14    15   ar
    14    15    16   ar
    15    16    17    1
    16    16    18   ar
    17    18    19   ar
    18     7     1   ar
    19    19    13   ar
    20    10    11    1
@<TRIPOS>MOLECULE
*****
 19 20 0 0 0
SMALL
GASTEIGER

@<TRIPOS>ATOM
      1 C         139.8168  138.2224  164.4806 C.ar    1  UNL1        0.0290
      2 C         138.5935  137.8352  165.2576 C.ar    1  UNL1        0.0115
      3 C         138.3197  138.4680  166.5898 C.ar    1  UNL1        0.0576
      4 CL        137.0964  138.0808  167.3668 Cl      1  UNL1       -0.0823
      5 C         139.2691  139.4880  167.1449 C.ar    1  UNL1        0.0145
      6 C         140.4924  139.8752  166.3679 C.ar    1  UNL1        0.0381
      7 C         140.7662  139.2424  165.0358 C.ar    1  UNL1        0.1426
      8 C         140.0906  137.5897  163.1485 C.3     1  UNL1        0.0987
      9 C         142.1515  137.6809  161.5692 C.3     1  UNL1        0.0861
     10 N         141.4807  137.1469  162.8000 N.3     1  UNL1       -0.2925
     11 H         142.0755  137.3949  163.5906 H       1  UNL1        0.1236
     12 O         141.9895  139.6296  164.2588 O.3     1  UNL1       -0.4538
     13 C         142.4355  141.0614  164.2267 C.ar    1  UNL1        0.1453
     14 C         141.5797  142.0989  163.5625 C.ar    1  UNL1        0.0384
     15 C         142.0258  143.5307  163.5304 C.ar    1  UNL1        0.0145
     16 C         143.3277  143.9250  164.1625 C.ar    1  UNL1        0.0579
     17 CL        143.7738  145.3567  164.1305 Cl      1  UNL1       -0.0822
     18 C         144.1835  142.8875  164.8267 C.ar    1  UNL1        0.0145
     19 C         143.7375  141.4557  164.8588 C.ar    1  UNL1        0.0384
@<TRIPOS>BOND
     1     9    10    1
     2    10     8    1
     3     8     1    1
     4     1     2   ar
     5     2     3   ar
     6     3     4    1
     7     3     5   ar
     8     5     6   ar
     9     6     7   ar
    10     7    12    1
    11    12    13    1
    12    13    14   ar
    13    14    15   ar
    14    15    16   ar
    15    16    17    1
    16    16    18   ar
    17    18    19   ar
    18     7     1   ar
    19    19    13   ar
    20    10    11    1
@<TRIPOS>MOLECULE
*****
 19 20 0 0 0
SMALL
GASTEIGER

@<TRIPOS>ATOM
      1 C         143.0702  141.0451  166.2878 C.ar    1  UNL1        0.0290
      2 C         143.0646  142.1240  167.3297 C.ar    1  UNL1        0.0115
      3 C         142.8365  141.7742  168.7704 C.ar    1  UNL1        0.0576
      4 CL        142.8309  142.8532  169.8125 Cl      1  UNL1       -0.0823
      5 C         142.6141  140.3454  169.1691 C.ar    1  UNL1        0.0145
      6 C         142.6197  139.2664  168.1272 C.ar    1  UNL1        0.0381
      7 C         142.8477  139.6163  166.6865 C.ar    1  UNL1        0.1426
      8 C         143.2982  141.3949  164.8471 C.3     1  UNL1        0.0987
      9 C         145.6918  141.4468  163.8382 C.3     1  UNL1        0.0861
     10 N         144.3985  140.7259  164.0779 N.3     1  UNL1       -0.2925
     11 H         144.6283  139.8676  164.5789 H       1  UNL1        0.1236
     12 O         142.8533  138.5372  165.6444 O.3     1  UNL1       -0.4538
     13 C         141.6622  138.3500  164.7523 C.ar    1  UNL1        0.1453
     14 C         140.2802  138.5814  165.2878 C.ar    1  UNL1        0.0384
     15 C         139.0891  138.3942  164.3956 C.ar    1  UNL1        0.0145
     16 C         139.2798  137.9755  162.9679 C.ar    1  UNL1        0.0579
     17 CL        138.0886  137.7882  162.0758 Cl      1  UNL1       -0.0822
     18 C         140.6616  137.7441  162.4324 C.ar    1  UNL1        0.0145
     19 C         141.8529  137.9313  163.3246 C.ar    1  UNL1        0.0384
@<TRIPOS>BOND
     1     9    10    1
     2    10     8    1
     3     8     1    1
     4     1     2   ar
     5     2     3   ar
     6     3     4    1
     7     3     5   ar
     8     5     6   ar
     9     6     7   ar
    10     7    12    1
    11    12    13    1
    12    13    14   ar
    13    14    15   ar
    14    15    16   ar
    15    16    17    1
    16    16    18   ar
    17    18    19   ar
    18     7     1   ar
    19    19    13   ar
    20    10    11    1
@<TRIPOS>MOLECULE
*****
 19 20 0 0 0
SMALL
GASTEIGER

@<TRIPOS>ATOM
      1 C         139.6534  138.4415  163.5170 C.ar    1  UNL1        0.0290
      2 C         139.0144  138.6813  162.1813 C.ar    1  UNL1        0.0115
      3 C         137.9708  139.7480  162.0299 C.ar    1  UNL1        0.0576
      4 CL        137.3318  139.9878  160.6941 Cl      1  UNL1       -0.0823
      5 C         137.5662  140.5750  163.2141 C.ar    1  UNL1        0.0145
      6 C         138.2052  140.3351  164.5498 C.ar    1  UNL1        0.0381
      7 C         139.2488  139.2684  164.7013 C.ar    1  UNL1        0.1426
      8 C         140.6970  137.3748  163.6685 C.3     1  UNL1        0.0987
      9 C         142.7801  137.9879  162.2419 C.3     1  UNL1        0.0861
     10 N         141.6292  137.0710  162.5333 N.3     1  UNL1       -0.2925
     11 H         142.0261  136.1494  162.7168 H       1  UNL1        0.1236
     12 O         139.8878  139.0286  166.0370 O.3     1  UNL1       -0.4538
     13 C         140.0806  140.1693  166.9918 C.ar    1  UNL1        0.1453
     14 C         140.7971  141.4089  166.5446 C.ar    1  UNL1        0.0384
     15 C         140.9898  142.5495  167.4994 C.ar    1  UNL1        0.0145
     16 C         140.4660  142.4507  168.9015 C.ar    1  UNL1        0.0579
     17 CL        140.6587  143.5913  169.8563 Cl      1  UNL1       -0.0822
     18 C         139.7495  141.2111  169.3488 C.ar    1  UNL1        0.0145
     19 C         139.5568  140.0704  168.3939 C.ar    1  UNL1        0.0384
@<TRIPOS>BOND
     1     9    10    1
     2    10     8    1
     3     8     1    1
     4     1     2   ar
     5     2     3   ar
     6     3     4    1
     7     3     5   ar
     8     5     6   ar
     9     6     7   ar
    10     7    12    1
    11    12    13    1
    12    13    14   ar
    13    14    15   ar
    14    15    16   ar
    15    16    17    1
    16    16    18   ar
    17    18    19   ar
    18     7     1   ar
    19    19    13   ar
    20    10    11    1
@<TRIPOS>MOLECULE
*****
 19 20 0 0 0
SMALL
GASTEIGER

@<TRIPOS>ATOM
      1 C         141.6611  139.5223  166.9285 C.ar    1  UNL1        0.0290
      2 C         142.5891  139.6188  168.1030 C.ar    1  UNL1        0.0115
      3 C         142.0431  139.9173  169.4678 C.ar    1  UNL1        0.0576
      4 CL        142.9712  140.0138  170.6423 Cl      1  UNL1       -0.0823
      5 C         140.5690  140.1195  169.6582 C.ar    1  UNL1        0.0145
      6 C         139.6410  140.0231  168.4837 C.ar    1  UNL1        0.0381
      7 C         140.1870  139.7245  167.1189 C.ar    1  UNL1        0.1426
      8 C         142.2071  139.2237  165.5637 C.3     1  UNL1        0.0987
      9 C         141.2629  138.3015  163.3259 C.3     1  UNL1        0.0861
     10 N         141.6421  138.0892  164.7616 N.3     1  UNL1       -0.2925
     11 H         142.3381  137.3437  164.7752 H       1  UNL1        0.1236
     12 O         139.2589  139.6280  165.9444 O.3     1  UNL1       -0.4538
     13 C         138.8754  140.8653  165.1880 C.ar    1  UNL1        0.1453
     14 C         139.4551  142.1927  165.5779 C.ar    1  UNL1        0.0384
     15 C         139.0716  143.4299  164.8216 C.ar    1  UNL1        0.0145
     16 C         138.1084  143.3398  163.6752 C.ar    1  UNL1        0.0579
     17 CL        137.7249  144.5770  162.9188 Cl      1  UNL1       -0.0822
     18 C         137.5288  142.0124  163.2852 C.ar    1  UNL1        0.0145
     19 C         137.9123  140.7751  164.0416 C.ar    1  UNL1        0.0384
@<TRIPOS>BOND
     1     9    10    1
     2    10     8    1
     3     8     1    1
     4     1     2   ar
     5     2     3   ar
     6     3     4    1
     7     3     5   ar
     8     5     6   ar
     9     6     7   ar
    10     7    12    1
    11    12    13    1
    12    13    14   ar
    13    14    15   ar
    14    15    16   ar
    15    16    17    1
    16    16    18   ar
    17    18    19   ar
    18     7     1   ar
    19    19    13   ar
    20    10    11    1
@<TRIPOS>MOLECULE
*****
 19 20 0 0 0
SMALL
GASTEIGER

@<TRIPOS>ATOM
      1 C         138.9736  140.7339  165.1581 C.ar    1  UNL1        0.0290
      2 C         138.1108  139.5517  165.4869 C.ar    1  UNL1        0.0115
      3 C         138.1105  138.9869  166.8765 C.ar    1  UNL1        0.0576
      4 CL        137.2477  137.8046  167.2053 Cl      1  UNL1       -0.0823
      5 C         138.9728  139.6042  167.9372 C.ar    1  UNL1        0.0145
      6 C         139.8355  140.7863  167.6084 C.ar    1  UNL1        0.0381
      7 C         139.8359  141.3512  166.2189 C.ar    1  UNL1        0.1426
      8 C         138.9739  141.2988  163.7685 C.3     1  UNL1        0.0987
      9 C         137.7053  143.4880  163.1788 C.3     1  UNL1        0.0861
     10 N         138.9733  142.7846  163.5629 N.3     1  UNL1       -0.2925
     11 H         139.2887  143.2031  164.4380 H       1  UNL1        0.1236
     12 O         140.6987  142.5334  165.8901 O.3     1  UNL1       -0.4538
     13 C         142.0624  142.3260  165.3010 C.ar    1  UNL1        0.1453
     14 C         142.8053  143.4840  164.7033 C.ar    1  UNL1        0.0384
     15 C         144.1691  143.2765  164.1141 C.ar    1  UNL1        0.0145
     16 C         144.7900  141.9111  164.1227 C.ar    1  UNL1        0.0579
     17 CL        146.1537  141.7036  163.5336 Cl      1  UNL1       -0.0822
     18 C         144.0471  140.7531  164.7204 C.ar    1  UNL1        0.0145
     19 C         142.6833  140.9605  165.3095 C.ar    1  UNL1        0.0384
@<TRIPOS>BOND
     1     9    10    1
     2    10     8    1
     3     8     1    1
     4     1     2   ar
     5     2     3   ar
     6     3     4    1
     7     3     5   ar
     8     5     6   ar
     9     6     7   ar
    10     7    12    1
    11    12    13    1
    12    13    14   ar
    13    14    15   ar
    14    15    16   ar
    15    16    17    1
    16    16    18   ar
    17    18    19   ar
    18     7     1   ar
    19    19    13   ar
    20    10    11    1
@<TRIPOS>MOLECULE
*****
 19 20 0 0 0
SMALL
GASTEIGER

@<TRIPOS>ATOM
      1 C         138.3867  141.6491  163.8453 C.ar    1  UNL1        0.0290
      2 C         138.4193  142.9169  163.0444 C.ar    1  UNL1        0.0115
      3 C         139.1082  144.1320  163.5912 C.ar    1  UNL1        0.0576
      4 CL        139.1409  145.3998  162.7902 Cl      1  UNL1       -0.0823
      5 C         139.7645  144.0792  164.9390 C.ar    1  UNL1        0.0145
      6 C         139.7319  142.8114  165.7399 C.ar    1  UNL1        0.0381
      7 C         139.0430  141.5963  165.1931 C.ar    1  UNL1        0.1426
      8 C         137.6977  140.4340  163.2985 C.3     1  UNL1        0.0987
      9 C         138.1478  138.1756  162.0956 C.3     1  UNL1        0.0861
     10 N         138.4311  139.1279  163.2194 N.3     1  UNL1       -0.2925
     11 H         139.4253  139.3509  163.1728 H       1  UNL1        0.1236
     12 O         139.0103  140.3284  165.9941 O.3     1  UNL1       -0.4538
     13 C         139.9862  140.1239  167.1146 C.ar    1  UNL1        0.1453
     14 C         141.4217  139.8116  166.8114 C.ar    1  UNL1        0.0384
     15 C         142.3977  139.6071  167.9320 C.ar    1  UNL1        0.0145
     16 C         141.9382  139.7149  169.3558 C.ar    1  UNL1        0.0579
     17 CL        142.9141  139.5104  170.4763 Cl      1  UNL1       -0.0822
     18 C         140.5028  140.0272  169.6590 C.ar    1  UNL1        0.0145
     19 C         139.5268  140.2317  168.5384 C.ar    1  UNL1        0.0384
@<TRIPOS>BOND
     1     9    10    1
     2    10     8    1
     3     8     1    1
     4     1     2   ar
     5     2     3   ar
     6     3     4    1
     7     3     5   ar
     8     5     6   ar
     9     6     7   ar
    10     7    12    1
    11    12    13    1
    12    13    14   ar
    13    14    15   ar
    14    15    16   ar
    15    16    17    1
    16    16    18   ar
    17    18    19   ar
    18     7     1   ar
    19    19    13   ar
    20    10    11    1
