@<TRIPOS>MOLECULE
*****
 35 38 0 0 0
SMALL
GASTEIGER

@<TRIPOS>ATOM
      1 C         143.1961  139.2689  157.6309 C.3     1  UNL1        0.1021
      2 C         142.6938  138.5330  156.4242 C.3     1  UNL1        0.0643
      3 C         141.4029  137.7720  156.4933 C.3     1  UNL1        0.1368
      4 C         141.7899  137.5000  155.0698 C.3     1  UNL1        0.0437
      5 C         140.2465  136.9166  156.0680 C.3     1  UNL1        0.0437
      6 O         140.6144  137.7470  157.7691 O.3     1  UNL1       -0.4676
      7 C         141.1167  138.4829  158.9757 C.ar    1  UNL1        0.2219
      8 N         140.3282  138.4580  160.2516 N.ar    1  UNL1       -0.2119
      9 C         140.8305  139.1939  161.4582 C.ar    1  UNL1        0.0851
     10 C         142.1213  139.9548  161.3891 C.ar    1  UNL1        0.0177
     11 C         142.9098  139.9798  160.1134 C.ar    1  UNL1        0.0034
     12 C         142.4076  139.2439  158.9066 C.ar    1  UNL1        0.0488
     13 C         140.0420  139.1689  162.7340 C.ar    1  UNL1        0.0284
     14 C         139.0416  140.2497  163.0187 C.ar    1  UNL1        0.0032
     15 C         138.2532  140.2247  164.2945 C.ar    1  UNL1        0.0115
     16 C         138.4651  139.1189  165.2856 C.ar    1  UNL1        0.0585
     17 CL        137.6766  139.0939  166.5615 Cl      1  UNL1       -0.0822
     18 C         139.4655  138.0381  165.0009 C.ar    1  UNL1        0.0228
     19 C         140.2539  138.0631  163.7251 C.ar    1  UNL1        0.0599
     20 CL        141.2544  136.9823  163.4404 Cl      1  UNL1       -0.0822
     21 C         142.6236  140.6908  162.5958 C.ar    1  UNL1        0.0015
     22 C         143.5066  139.9920  163.5868 C.ar    1  UNL1        0.0009
     23 C         144.0089  140.7278  164.7935 C.ar    1  UNL1        0.0114
     24 C         143.6282  142.1625  165.0092 C.ar    1  UNL1        0.0577
     25 CL        144.1305  142.8985  166.2160 Cl      1  UNL1       -0.0822
     26 C         142.7452  142.8614  164.0183 C.ar    1  UNL1        0.0114
     27 C         142.2429  142.1255  162.8116 C.ar    1  UNL1        0.0009
     28 C         144.5291  141.3769  156.9032 C.2     1  UNL1        0.2495
     29 O         143.2804  141.9630  156.3138 O.2     1  UNL1       -0.2725
     30 N         144.4869  140.0298  157.5618 N.am    1  UNL1       -0.3000
     31 H         145.3064  139.6452  157.9486 H       1  UNL1        0.1498
     32 C         146.7188  141.9832  155.6432 C.3     1  UNL1        0.0417
     33 C         145.8199  142.1378  156.8341 C.3     1  UNL1        0.1866
     34 O         146.2118  143.0533  157.9558 O.3     1  UNL1       -0.3758
     35 H         147.0671  143.4640  157.7541 H       1  UNL1        0.2110
@<TRIPOS>BOND
     1    33    32    1
     2    33    34    1
     3    33    28    1
     4    28    29    2
     5    28    30   am
     6    30     1    1
     7     1     2    1
     8     2     3    1
     9     3     4    1
    10     3     5    1
    11     3     6    1
    12     6     7    1
    13     7     8   ar
    14     8     9   ar
    15     9    13    1
    16    13    14   ar
    17    14    15   ar
    18    15    16   ar
    19    16    17    1
    20    16    18   ar
    21    18    19   ar
    22    19    20    1
    23     9    10   ar
    24    10    21    1
    25    21    22   ar
    26    22    23   ar
    27    23    24   ar
    28    24    25    1
    29    24    26   ar
    30    26    27   ar
    31    10    11   ar
    32    11    12   ar
    33    12     1    1
    34    12     7   ar
    35    19    13   ar
    36    27    21   ar
    37    34    35    1
    38    30    31    1
@<TRIPOS>MOLECULE
*****
 35 38 0 0 0
SMALL
GASTEIGER

@<TRIPOS>ATOM
      1 C         140.3850  141.4772  156.4467 C.3     1  UNL1        0.1021
      2 C         140.3903  142.4067  155.2695 C.3     1  UNL1        0.0643
      3 C         140.1194  143.8688  155.4671 C.3     1  UNL1        0.1368
      4 C         140.3266  143.8407  153.9818 C.3     1  UNL1        0.0437
      5 C         139.9204  145.3210  155.1488 C.3     1  UNL1        0.0437
      6 O         139.8431  144.4013  156.8419 O.3     1  UNL1       -0.4676
      7 C         139.8377  143.4717  158.0191 C.ar    1  UNL1        0.2219
      8 N         139.5614  144.0042  159.3940 N.ar    1  UNL1       -0.2119
      9 C         139.5560  143.0746  160.5711 C.ar    1  UNL1        0.0851
     10 C         139.8269  141.6126  160.3736 C.ar    1  UNL1        0.0177
     11 C         140.1032  141.0801  158.9988 C.ar    1  UNL1        0.0034
     12 C         140.1086  142.0097  157.8215 C.ar    1  UNL1        0.0488
     13 C         139.2797  143.6071  161.9460 C.ar    1  UNL1        0.0284
     14 C         137.8967  143.5195  162.5203 C.ar    1  UNL1        0.0032
     15 C         137.6205  144.0519  163.8951 C.ar    1  UNL1        0.0115
     16 C         138.7271  144.6720  164.6956 C.ar    1  UNL1        0.0585
     17 CL        138.4508  145.2044  166.0705 Cl      1  UNL1       -0.0822
     18 C         140.1101  144.7595  164.1214 C.ar    1  UNL1        0.0228
     19 C         140.3863  144.2271  162.7466 C.ar    1  UNL1        0.0599
     20 CL        141.7693  144.3146  162.1723 Cl      1  UNL1       -0.0822
     21 C         139.8215  140.6830  161.5509 C.ar    1  UNL1        0.0015
     22 C         141.0581  140.5212  162.3843 C.ar    1  UNL1        0.0009
     23 C         141.0528  139.5916  163.5616 C.ar    1  UNL1        0.0114
     24 C         139.8109  138.8240  163.9053 C.ar    1  UNL1        0.0577
     25 CL        139.8055  137.8944  165.0826 Cl      1  UNL1       -0.0822
     26 C         138.5743  138.9858  163.0719 C.ar    1  UNL1        0.0114
     27 C         138.5796  139.9153  161.8946 C.ar    1  UNL1        0.0009
     28 C         139.5138  139.0497  156.1332 C.2     1  UNL1        0.2495
     29 O         138.1007  139.5463  156.2149 O.2     1  UNL1       -0.2725
     30 N         140.6559  140.0151  156.2491 N.am    1  UNL1       -0.3000
     31 H         141.5833  139.6892  156.1955 H       1  UNL1        0.1498
     32 C         141.1568  137.1255  155.5432 C.3     1  UNL1        0.0417
     33 C         139.7847  137.5877  155.9356 C.3     1  UNL1        0.1866
     34 O         138.6837  136.5878  156.1304 O.3     1  UNL1       -0.3758
     35 H         139.0247  135.6950  155.9648 H       1  UNL1        0.2110
@<TRIPOS>BOND
     1    33    32    1
     2    33    34    1
     3    33    28    1
     4    28    29    2
     5    28    30   am
     6    30     1    1
     7     1     2    1
     8     2     3    1
     9     3     4    1
    10     3     5    1
    11     3     6    1
    12     6     7    1
    13     7     8   ar
    14     8     9   ar
    15     9    13    1
    16    13    14   ar
    17    14    15   ar
    18    15    16   ar
    19    16    17    1
    20    16    18   ar
    21    18    19   ar
    22    19    20    1
    23     9    10   ar
    24    10    21    1
    25    21    22   ar
    26    22    23   ar
    27    23    24   ar
    28    24    25    1
    29    24    26   ar
    30    26    27   ar
    31    10    11   ar
    32    11    12   ar
    33    12     1    1
    34    12     7   ar
    35    19    13   ar
    36    27    21   ar
    37    34    35    1
    38    30    31    1
@<TRIPOS>MOLECULE
*****
 35 38 0 0 0
SMALL
GASTEIGER

@<TRIPOS>ATOM
      1 C         140.9309  138.3954  156.3712 C.3     1  UNL1        0.1021
      2 C         141.7198  137.5491  155.4167 C.3     1  UNL1        0.0643
      3 C         142.8568  136.7107  155.9211 C.3     1  UNL1        0.1368
      4 C         142.9100  136.3705  154.4612 C.3     1  UNL1        0.0437
      5 C         144.0122  135.7541  155.9184 C.3     1  UNL1        0.0437
      6 O         143.2048  136.7187  157.3801 O.3     1  UNL1       -0.4676
      7 C         142.4159  137.5650  158.3347 C.ar    1  UNL1        0.2219
      8 N         142.7640  137.5731  159.7938 N.ar    1  UNL1       -0.2119
      9 C         141.9751  138.4194  160.7483 C.ar    1  UNL1        0.0851
     10 C         140.8381  139.2578  160.2439 C.ar    1  UNL1        0.0177
     11 C         140.4901  139.2498  158.7849 C.ar    1  UNL1        0.0034
     12 C         141.2790  138.4034  157.8302 C.ar    1  UNL1        0.0488
     13 C         142.3231  138.4275  162.2074 C.ar    1  UNL1        0.0284
     14 C         141.5339  137.5920  163.1713 C.ar    1  UNL1        0.0032
     15 C         141.8820  137.6001  164.6303 C.ar    1  UNL1        0.0115
     16 C         143.0192  138.4436  165.1254 C.ar    1  UNL1        0.0585
     17 CL        143.3673  138.4516  166.5845 Cl      1  UNL1       -0.0822
     18 C         143.8085  139.2790  164.1615 C.ar    1  UNL1        0.0228
     19 C         143.4604  139.2710  162.7025 C.ar    1  UNL1        0.0599
     20 CL        144.2496  140.1064  161.7386 Cl      1  UNL1       -0.0822
     21 C         140.0492  140.1042  161.1986 C.ar    1  UNL1        0.0015
     22 C         138.7528  139.5961  161.7562 C.ar    1  UNL1        0.0009
     23 C         137.9639  140.4424  162.7108 C.ar    1  UNL1        0.0114
     24 C         138.4714  141.7969  163.1078 C.ar    1  UNL1        0.0577
     25 CL        137.6825  142.6433  164.0624 Cl      1  UNL1       -0.0822
     26 C         139.7679  142.3051  162.5502 C.ar    1  UNL1        0.0114
     27 C         140.5568  141.4587  161.5956 C.ar    1  UNL1        0.0009
     28 C         138.4993  138.5849  155.4761 C.2     1  UNL1        0.2495
     29 O         138.3415  137.0975  155.5899 O.2     1  UNL1       -0.2725
     30 N         139.7940  139.2338  155.8668 N.am    1  UNL1       -0.3000
     31 H         139.8975  140.2100  155.7921 H       1  UNL1        0.1498
     32 C         137.6147  140.8262  154.5045 C.3     1  UNL1        0.0417
     33 C         137.3623  139.4233  154.9717 C.3     1  UNL1        0.1866
     34 O         135.9731  138.8588  154.9345 O.3     1  UNL1       -0.3758
     35 H         135.3623  139.5261  154.5844 H       1  UNL1        0.2110
@<TRIPOS>BOND
     1    33    32    1
     2    33    34    1
     3    33    28    1
     4    28    29    2
     5    28    30   am
     6    30     1    1
     7     1     2    1
     8     2     3    1
     9     3     4    1
    10     3     5    1
    11     3     6    1
    12     6     7    1
    13     7     8   ar
    14     8     9   ar
    15     9    13    1
    16    13    14   ar
    17    14    15   ar
    18    15    16   ar
    19    16    17    1
    20    16    18   ar
    21    18    19   ar
    22    19    20    1
    23     9    10   ar
    24    10    21    1
    25    21    22   ar
    26    22    23   ar
    27    23    24   ar
    28    24    25    1
    29    24    26   ar
    30    26    27   ar
    31    10    11   ar
    32    11    12   ar
    33    12     1    1
    34    12     7   ar
    35    19    13   ar
    36    27    21   ar
    37    34    35    1
    38    30    31    1
@<TRIPOS>MOLECULE
*****
 35 38 0 0 0
SMALL
GASTEIGER

@<TRIPOS>ATOM
      1 C         138.6334  139.8880  156.7907 C.3     1  UNL1        0.1021
      2 C         138.0143  140.5150  155.5768 C.3     1  UNL1        0.0643
      3 C         137.4238  141.8913  155.6621 C.3     1  UNL1        0.1368
      4 C         137.1582  141.5829  154.2184 C.3     1  UNL1        0.0437
      5 C         136.7411  143.1604  155.2459 C.3     1  UNL1        0.0437
      6 O         137.4524  142.6405  156.9613 O.3     1  UNL1       -0.4676
      7 C         138.0714  142.0134  158.1751 C.ar    1  UNL1        0.2219
      8 N         138.1000  142.7625  159.4744 N.ar    1  UNL1       -0.2119
      9 C         138.7190  142.1355  160.6883 C.ar    1  UNL1        0.0851
     10 C         139.3095  140.7592  160.6029 C.ar    1  UNL1        0.0177
     11 C         139.2810  140.0101  159.3038 C.ar    1  UNL1        0.0034
     12 C         138.6619  140.6371  158.0898 C.ar    1  UNL1        0.0488
     13 C         138.7476  142.8846  161.9875 C.ar    1  UNL1        0.0284
     14 C         137.6963  142.6260  163.0256 C.ar    1  UNL1        0.0032
     15 C         137.7249  143.3752  164.3248 C.ar    1  UNL1        0.0115
     16 C         138.8048  144.3829  164.5859 C.ar    1  UNL1        0.0585
     17 CL        138.8334  145.1321  165.8851 Cl      1  UNL1       -0.0822
     18 C         139.8562  144.6415  163.5477 C.ar    1  UNL1        0.0228
     19 C         139.8276  143.8924  162.2486 C.ar    1  UNL1        0.0599
     20 CL        140.8790  144.1510  161.2103 Cl      1  UNL1       -0.0822
     21 C         139.9286  140.1321  161.8169 C.ar    1  UNL1        0.0015
     22 C         139.1241  139.1979  162.6713 C.ar    1  UNL1        0.0009
     23 C         139.7431  138.5708  163.8852 C.ar    1  UNL1        0.0114
     24 C         141.1665  138.8780  164.2447 C.ar    1  UNL1        0.0577
     25 CL        141.7856  138.2509  165.4587 Cl      1  UNL1       -0.0822
     26 C         141.9710  139.8123  163.3904 C.ar    1  UNL1        0.0114
     27 C         141.3520  140.4394  162.1765 C.ar    1  UNL1        0.0009
     28 C         140.6847  138.3392  156.4118 C.2     1  UNL1        0.2495
     29 O         141.5551  139.5430  156.2034 O.2     1  UNL1       -0.2725
     30 N         139.2239  138.5117  156.7053 N.am    1  UNL1       -0.3000
     31 H         138.6526  137.7216  156.8421 H       1  UNL1        0.1498
     32 C         142.6568  136.7058  156.8510 C.3     1  UNL1        0.0417
     33 C         141.2751  136.9630  156.3264 C.3     1  UNL1        0.1866
     34 O         140.4841  135.8439  155.7167 O.3     1  UNL1       -0.3758
     35 H         141.0077  135.0278  155.7398 H       1  UNL1        0.2110
@<TRIPOS>BOND
     1    33    32    1
     2    33    34    1
     3    33    28    1
     4    28    29    2
     5    28    30   am
     6    30     1    1
     7     1     2    1
     8     2     3    1
     9     3     4    1
    10     3     5    1
    11     3     6    1
    12     6     7    1
    13     7     8   ar
    14     8     9   ar
    15     9    13    1
    16    13    14   ar
    17    14    15   ar
    18    15    16   ar
    19    16    17    1
    20    16    18   ar
    21    18    19   ar
    22    19    20    1
    23     9    10   ar
    24    10    21    1
    25    21    22   ar
    26    22    23   ar
    27    23    24   ar
    28    24    25    1
    29    24    26   ar
    30    26    27   ar
    31    10    11   ar
    32    11    12   ar
    33    12     1    1
    34    12     7   ar
    35    19    13   ar
    36    27    21   ar
    37    34    35    1
    38    30    31    1
@<TRIPOS>MOLECULE
*****
 35 38 0 0 0
SMALL
GASTEIGER

@<TRIPOS>ATOM
      1 C         143.6272  139.8405  156.1491 C.3     1  UNL1        0.1021
      2 C         144.3741  140.4507  155.0003 C.3     1  UNL1        0.0643
      3 C         145.2759  141.6268  155.2319 C.3     1  UNL1        0.1368
      4 C         145.4558  141.4477  153.7535 C.3     1  UNL1        0.0437
      5 C         146.2401  142.7406  154.9500 C.3     1  UNL1        0.0437
      6 O         145.4308  142.1927  156.6123 O.3     1  UNL1       -0.4676
      7 C         144.6839  141.5825  157.7612 C.ar    1  UNL1        0.2219
      8 N         144.8388  142.1484  159.1417 N.ar    1  UNL1       -0.2119
      9 C         144.0920  141.5383  160.2905 C.ar    1  UNL1        0.0851
     10 C         143.1902  140.3622  160.0589 C.ar    1  UNL1        0.0177
     11 C         143.0353  139.7963  158.6785 C.ar    1  UNL1        0.0034
     12 C         143.7822  140.4064  157.5296 C.ar    1  UNL1        0.0488
     13 C         144.2469  142.1042  161.6711 C.ar    1  UNL1        0.0284
     14 C         145.2407  141.5037  162.6207 C.ar    1  UNL1        0.0032
     15 C         145.3955  142.0697  164.0011 C.ar    1  UNL1        0.0115
     16 C         144.5565  143.2361  164.4320 C.ar    1  UNL1        0.0585
     17 CL        144.7114  143.8020  165.8125 Cl      1  UNL1       -0.0822
     18 C         143.5627  143.8365  163.4824 C.ar    1  UNL1        0.0228
     19 C         143.4079  143.2706  162.1020 C.ar    1  UNL1        0.0599
     20 CL        142.4140  143.8711  161.1523 Cl      1  UNL1       -0.0822
     21 C         142.4433  139.7520  161.2079 C.ar    1  UNL1        0.0015
     22 C         143.0320  138.5910  161.9531 C.ar    1  UNL1        0.0009
     23 C         142.2852  137.9808  163.1020 C.ar    1  UNL1        0.0114
     24 C         140.9497  138.5317  163.5056 C.ar    1  UNL1        0.0577
     25 CL        140.2029  137.9216  164.6545 Cl      1  UNL1       -0.0822
     26 C         140.3610  139.6928  162.7603 C.ar    1  UNL1        0.0114
     27 C         141.1078  140.3029  161.6115 C.ar    1  UNL1        0.0009
     28 C         143.3126  137.3103  155.6500 C.2     1  UNL1        0.2495
     29 O         144.8017  137.1323  155.6141 O.2     1  UNL1       -0.2725
     30 N         142.7255  138.6644  155.9175 N.am    1  UNL1       -0.3000
     31 H         141.7482  138.7813  155.9410 H       1  UNL1        0.1498
     32 C         142.8393  135.0306  154.4972 C.3     1  UNL1        0.0417
     33 C         142.4109  136.1342  155.4184 C.3     1  UNL1        0.1866
     34 O         141.0808  136.0617  156.1080 O.3     1  UNL1       -0.3758
     35 H         140.6275  135.2437  155.8508 H       1  UNL1        0.2110
@<TRIPOS>BOND
     1    33    32    1
     2    33    34    1
     3    33    28    1
     4    28    29    2
     5    28    30   am
     6    30     1    1
     7     1     2    1
     8     2     3    1
     9     3     4    1
    10     3     5    1
    11     3     6    1
    12     6     7    1
    13     7     8   ar
    14     8     9   ar
    15     9    13    1
    16    13    14   ar
    17    14    15   ar
    18    15    16   ar
    19    16    17    1
    20    16    18   ar
    21    18    19   ar
    22    19    20    1
    23     9    10   ar
    24    10    21    1
    25    21    22   ar
    26    22    23   ar
    27    23    24   ar
    28    24    25    1
    29    24    26   ar
    30    26    27   ar
    31    10    11   ar
    32    11    12   ar
    33    12     1    1
    34    12     7   ar
    35    19    13   ar
    36    27    21   ar
    37    34    35    1
    38    30    31    1
@<TRIPOS>MOLECULE
*****
 35 38 0 0 0
SMALL
GASTEIGER

@<TRIPOS>ATOM
      1 C         138.5663  140.8281  164.2037 C.3     1  UNL1        0.1021
      2 C         138.2441  139.9414  165.3698 C.3     1  UNL1        0.0643
      3 C         138.4598  138.4604  165.2681 C.3     1  UNL1        0.1368
      4 C         137.9332  138.5513  166.6697 C.3     1  UNL1        0.0437
      5 C         138.4926  137.0111  165.6532 C.3     1  UNL1        0.0437
      6 O         138.9977  137.8662  164.0002 O.3     1  UNL1       -0.4676
      7 C         139.3199  138.7530  162.8341 C.ar    1  UNL1        0.2219
      8 N         139.8579  138.1588  161.5662 N.ar    1  UNL1       -0.2119
      9 C         140.1801  139.0455  160.4000 C.ar    1  UNL1        0.0851
     10 C         139.9644  140.5264  160.5018 C.ar    1  UNL1        0.0177
     11 C         139.4265  141.1206  161.7697 C.ar    1  UNL1        0.0034
     12 C         139.1042  140.2339  162.9359 C.ar    1  UNL1        0.0488
     13 C         140.7180  138.4513  159.1321 C.ar    1  UNL1        0.0284
     14 C         139.7843  138.1086  158.0093 C.ar    1  UNL1        0.0032
     15 C         140.3223  137.5144  156.7414 C.ar    1  UNL1        0.0115
     16 C         141.7940  137.2630  156.5964 C.ar    1  UNL1        0.0585
     17 CL        142.3319  136.6688  155.3284 Cl      1  UNL1       -0.0822
     18 C         142.7276  137.6057  157.7192 C.ar    1  UNL1        0.0228
     19 C         142.1897  138.1999  158.9870 C.ar    1  UNL1        0.0599
     20 CL        143.1234  138.5426  160.1099 Cl      1  UNL1       -0.0822
     21 C         140.2866  141.4131  159.3356 C.ar    1  UNL1        0.0015
     22 C         139.2108  141.7914  158.3613 C.ar    1  UNL1        0.0009
     23 C         139.5329  142.6781  157.1951 C.ar    1  UNL1        0.0114
     24 C         140.9310  143.1865  157.0033 C.ar    1  UNL1        0.0577
     25 CL        141.2533  144.0732  155.8371 Cl      1  UNL1       -0.0822
     26 C         142.0069  142.8082  157.9776 C.ar    1  UNL1        0.0114
     27 C         141.6847  141.9215  159.1438 C.ar    1  UNL1        0.0009
     28 C         139.4599  143.1972  164.7855 C.2     1  UNL1        0.2495
     29 O         140.7849  142.6046  165.1639 O.2     1  UNL1       -0.2725
     30 N         138.3506  142.3090  164.3055 N.am    1  UNL1       -0.3000
     31 H         137.4810  142.6980  164.0572 H       1  UNL1        0.1498
     32 C         138.3459  145.2338  165.9524 C.3     1  UNL1        0.0417
     33 C         139.2442  144.6782  164.8873 C.3     1  UNL1        0.1866
     34 O         139.9267  145.6034  163.9240 O.3     1  UNL1       -0.3758
     35 H         139.6817  146.5197  164.1271 H       1  UNL1        0.2110
@<TRIPOS>BOND
     1    33    32    1
     2    33    34    1
     3    33    28    1
     4    28    29    2
     5    28    30   am
     6    30     1    1
     7     1     2    1
     8     2     3    1
     9     3     4    1
    10     3     5    1
    11     3     6    1
    12     6     7    1
    13     7     8   ar
    14     8     9   ar
    15     9    13    1
    16    13    14   ar
    17    14    15   ar
    18    15    16   ar
    19    16    17    1
    20    16    18   ar
    21    18    19   ar
    22    19    20    1
    23     9    10   ar
    24    10    21    1
    25    21    22   ar
    26    22    23   ar
    27    23    24   ar
    28    24    25    1
    29    24    26   ar
    30    26    27   ar
    31    10    11   ar
    32    11    12   ar
    33    12     1    1
    34    12     7   ar
    35    19    13   ar
    36    27    21   ar
    37    34    35    1
    38    30    31    1
@<TRIPOS>MOLECULE
*****
 35 38 0 0 0
SMALL
GASTEIGER

@<TRIPOS>ATOM
      1 C         140.1936  136.9097  156.0616 C.3     1  UNL1        0.1021
      2 C         140.9519  135.9201  155.2276 C.3     1  UNL1        0.0643
      3 C         142.3718  135.5807  155.5723 C.3     1  UNL1        0.1368
      4 C         142.1803  134.7073  154.3680 C.3     1  UNL1        0.0437
      5 C         143.7251  134.9380  155.4988 C.3     1  UNL1        0.0437
      6 O         143.0333  136.2310  156.7511 O.3     1  UNL1       -0.4676
      7 C         142.2750  137.2205  157.5851 C.ar    1  UNL1        0.2219
      8 N         142.9365  137.8709  158.7639 N.ar    1  UNL1       -0.2119
      9 C         142.1781  138.8604  159.5979 C.ar    1  UNL1        0.0851
     10 C         140.7583  139.1998  159.2532 C.ar    1  UNL1        0.0177
     11 C         140.0968  138.5495  158.0744 C.ar    1  UNL1        0.0034
     12 C         140.8551  137.5599  157.2403 C.ar    1  UNL1        0.0488
     13 C         142.8396  139.5107  160.7768 C.ar    1  UNL1        0.0284
     14 C         143.6255  140.7750  160.5927 C.ar    1  UNL1        0.0032
     15 C         144.2870  141.4252  161.7715 C.ar    1  UNL1        0.0115
     16 C         144.1625  140.8112  163.1344 C.ar    1  UNL1        0.0585
     17 CL        144.8240  141.4615  164.3133 Cl      1  UNL1       -0.0822
     18 C         143.3766  139.5469  163.3185 C.ar    1  UNL1        0.0228
     19 C         142.7152  138.8967  162.1397 C.ar    1  UNL1        0.0599
     20 CL        141.9292  137.6324  162.3237 Cl      1  UNL1       -0.0822
     21 C         139.9999  140.1894  160.0872 C.ar    1  UNL1        0.0015
     22 C         140.0887  141.6546  159.7783 C.ar    1  UNL1        0.0009
     23 C         139.3304  142.6442  160.6123 C.ar    1  UNL1        0.0114
     24 C         138.4834  142.1687  161.7552 C.ar    1  UNL1        0.0577
     25 CL        137.7250  143.1583  162.5893 Cl      1  UNL1       -0.0822
     26 C         138.3945  140.7035  162.0641 C.ar    1  UNL1        0.0114
     27 C         139.1528  139.7139  161.2301 C.ar    1  UNL1        0.0009
     28 C         138.4794  138.1581  154.5606 C.2     1  UNL1        0.2495
     29 O         139.6050  138.7279  153.7490 O.2     1  UNL1       -0.2725
     30 N         138.7737  137.2490  155.7168 N.am    1  UNL1       -0.3000
     31 H         138.0350  136.8750  156.2494 H       1  UNL1        0.1498
     32 C         136.7680  139.4794  153.1199 C.3     1  UNL1        0.0417
     33 C         137.0596  138.4974  154.2158 C.3     1  UNL1        0.1866
     34 O         135.9313  137.8548  154.9668 O.3     1  UNL1       -0.3758
     35 H         135.0857  138.1814  154.6215 H       1  UNL1        0.2110
@<TRIPOS>BOND
     1    33    32    1
     2    33    34    1
     3    33    28    1
     4    28    29    2
     5    28    30   am
     6    30     1    1
     7     1     2    1
     8     2     3    1
     9     3     4    1
    10     3     5    1
    11     3     6    1
    12     6     7    1
    13     7     8   ar
    14     8     9   ar
    15     9    13    1
    16    13    14   ar
    17    14    15   ar
    18    15    16   ar
    19    16    17    1
    20    16    18   ar
    21    18    19   ar
    22    19    20    1
    23     9    10   ar
    24    10    21    1
    25    21    22   ar
    26    22    23   ar
    27    23    24   ar
    28    24    25    1
    29    24    26   ar
    30    26    27   ar
    31    10    11   ar
    32    11    12   ar
    33    12     1    1
    34    12     7   ar
    35    19    13   ar
    36    27    21   ar
    37    34    35    1
    38    30    31    1
@<TRIPOS>MOLECULE
*****
 35 38 0 0 0
SMALL
GASTEIGER

@<TRIPOS>ATOM
      1 C         139.7471  141.2544  156.7349 C.3     1  UNL1        0.1021
      2 C         138.5854  141.3494  155.7908 C.3     1  UNL1        0.0643
      3 C         137.2002  141.0339  156.2720 C.3     1  UNL1        0.1368
      4 C         136.9072  141.3762  154.8413 C.3     1  UNL1        0.0437
      5 C         135.7132  140.8373  156.2563 C.3     1  UNL1        0.0437
      6 O         136.9767  140.6233  157.6973 O.3     1  UNL1       -0.4676
      7 C         138.1384  140.5283  158.6413 C.ar    1  UNL1        0.2219
      8 N         137.9149  140.1177  160.0667 N.ar    1  UNL1       -0.2119
      9 C         139.0767  140.0226  161.0107 C.ar    1  UNL1        0.0851
     10 C         140.4619  140.3382  160.5295 C.ar    1  UNL1        0.0177
     11 C         140.6854  140.7488  159.1043 C.ar    1  UNL1        0.0034
     12 C         139.5236  140.8438  158.1601 C.ar    1  UNL1        0.0488
     13 C         138.8532  139.6120  162.4361 C.ar    1  UNL1        0.0284
     14 C         139.0554  138.1833  162.8455 C.ar    1  UNL1        0.0032
     15 C         138.8319  137.7727  164.2708 C.ar    1  UNL1        0.0115
     16 C         138.4063  138.7910  165.2867 C.ar    1  UNL1        0.0585
     17 CL        138.1828  138.3804  166.7120 Cl      1  UNL1       -0.0822
     18 C         138.2041  140.2197  164.8773 C.ar    1  UNL1        0.0228
     19 C         138.4276  140.6303  163.4520 C.ar    1  UNL1        0.0599
     20 CL        138.2254  142.0591  163.0425 Cl      1  UNL1       -0.0822
     21 C         141.6237  140.2431  161.4737 C.ar    1  UNL1        0.0015
     22 C         141.9475  141.3917  162.3824 C.ar    1  UNL1        0.0009
     23 C         143.1092  141.2967  163.3265 C.ar    1  UNL1        0.0114
     24 C         143.9471  140.0531  163.3619 C.ar    1  UNL1        0.0577
     25 CL        145.1088  139.9580  164.3060 Cl      1  UNL1       -0.0822
     26 C         143.6233  138.9045  162.4531 C.ar    1  UNL1        0.0114
     27 C         142.4616  138.9995  161.5090 C.ar    1  UNL1        0.0009
     28 C         141.6707  142.9643  156.3798 C.2     1  UNL1        0.2495
     29 O         140.8238  144.0432  156.9871 O.2     1  UNL1       -0.2725
     30 N         141.1324  141.5699  156.2537 N.am    1  UNL1       -0.3000
     31 H         141.6882  140.8619  155.8550 H       1  UNL1        0.1498
     32 C         144.1485  142.2615  156.0382 C.3     1  UNL1        0.0417
     33 C         143.0559  143.2798  155.8986 C.3     1  UNL1        0.1866
     34 O         143.3486  144.6136  155.2778 O.3     1  UNL1       -0.3758
     35 H         144.2839  144.6537  155.0237 H       1  UNL1        0.2110
@<TRIPOS>BOND
     1    33    32    1
     2    33    34    1
     3    33    28    1
     4    28    29    2
     5    28    30   am
     6    30     1    1
     7     1     2    1
     8     2     3    1
     9     3     4    1
    10     3     5    1
    11     3     6    1
    12     6     7    1
    13     7     8   ar
    14     8     9   ar
    15     9    13    1
    16    13    14   ar
    17    14    15   ar
    18    15    16   ar
    19    16    17    1
    20    16    18   ar
    21    18    19   ar
    22    19    20    1
    23     9    10   ar
    24    10    21    1
    25    21    22   ar
    26    22    23   ar
    27    23    24   ar
    28    24    25    1
    29    24    26   ar
    30    26    27   ar
    31    10    11   ar
    32    11    12   ar
    33    12     1    1
    34    12     7   ar
    35    19    13   ar
    36    27    21   ar
    37    34    35    1
    38    30    31    1
@<TRIPOS>MOLECULE
*****
 35 38 0 0 0
SMALL
GASTEIGER

@<TRIPOS>ATOM
      1 C         137.5789  143.1574  156.0411 C.3     1  UNL1        0.1021
      2 C         136.6945  142.5966  154.9672 C.3     1  UNL1        0.0643
      3 C         136.0938  141.2315  155.1272 C.3     1  UNL1        0.1368
      4 C         135.5339  141.6071  153.7873 C.3     1  UNL1        0.0437
      5 C         135.2987  139.9968  154.8218 C.3     1  UNL1        0.0437
      6 O         136.3776  140.4272  156.3611 O.3     1  UNL1       -0.4676
      7 C         137.2620  140.9880  157.4350 C.ar    1  UNL1        0.2219
      8 N         137.5458  140.1836  158.6689 N.ar    1  UNL1       -0.2119
      9 C         138.4302  140.7444  159.7428 C.ar    1  UNL1        0.0851
     10 C         139.0309  142.1095  159.5828 C.ar    1  UNL1        0.0177
     11 C         138.7472  142.9139  158.3489 C.ar    1  UNL1        0.0034
     12 C         137.8627  142.3531  157.2750 C.ar    1  UNL1        0.0488
     13 C         138.7140  139.9401  160.9768 C.ar    1  UNL1        0.0284
     14 C         137.9195  140.1784  162.2265 C.ar    1  UNL1        0.0032
     15 C         138.2033  139.3740  163.4604 C.ar    1  UNL1        0.0115
     16 C         139.2816  138.3314  163.4445 C.ar    1  UNL1        0.0585
     17 CL        139.5654  137.5271  164.6785 Cl      1  UNL1       -0.0822
     18 C         140.0761  138.0931  162.1947 C.ar    1  UNL1        0.0228
     19 C         139.7923  138.8974  160.9609 C.ar    1  UNL1        0.0599
     20 CL        140.5868  138.6592  159.7110 Cl      1  UNL1       -0.0822
     21 C         139.9154  142.6703  160.6568 C.ar    1  UNL1        0.0015
     22 C         139.3388  143.5701  161.7093 C.ar    1  UNL1        0.0009
     23 C         140.2231  144.1309  162.7833 C.ar    1  UNL1        0.0114
     24 C         141.6841  143.7919  162.8046 C.ar    1  UNL1        0.0577
     25 CL        142.5686  144.3526  163.8786 Cl      1  UNL1       -0.0822
     26 C         142.2608  142.8921  161.7520 C.ar    1  UNL1        0.0114
     27 C         141.3764  142.3313  160.6781 C.ar    1  UNL1        0.0009
     28 C         139.5723  144.6709  155.3441 C.2     1  UNL1        0.2495
     29 O         140.3644  143.4541  154.9671 O.2     1  UNL1       -0.2725
     30 N         138.1796  144.5225  155.8811 N.am    1  UNL1       -0.3000
     31 H         137.6598  145.3212  156.1286 H       1  UNL1        0.1498
     32 C         140.6464  146.4939  153.8364 C.3     1  UNL1        0.0417
     33 C         140.1730  146.0360  155.1841 C.3     1  UNL1        0.1866
     34 O         140.3003  146.9433  156.3718 O.3     1  UNL1       -0.3758
     35 H         140.7058  147.7806  156.0971 H       1  UNL1        0.2110
@<TRIPOS>BOND
     1    33    32    1
     2    33    34    1
     3    33    28    1
     4    28    29    2
     5    28    30   am
     6    30     1    1
     7     1     2    1
     8     2     3    1
     9     3     4    1
    10     3     5    1
    11     3     6    1
    12     6     7    1
    13     7     8   ar
    14     8     9   ar
    15     9    13    1
    16    13    14   ar
    17    14    15   ar
    18    15    16   ar
    19    16    17    1
    20    16    18   ar
    21    18    19   ar
    22    19    20    1
    23     9    10   ar
    24    10    21    1
    25    21    22   ar
    26    22    23   ar
    27    23    24   ar
    28    24    25    1
    29    24    26   ar
    30    26    27   ar
    31    10    11   ar
    32    11    12   ar
    33    12     1    1
    34    12     7   ar
    35    19    13   ar
    36    27    21   ar
    37    34    35    1
    38    30    31    1
