@<TRIPOS>MOLECULE
*****
 51 56 0 0 0
SMALL
GASTEIGER

@<TRIPOS>ATOM
      1 C         140.4027  142.1476  158.7610 C.ar    1  UNL1        0.0375
      2 C         139.4535  142.1172  157.6000 C.ar    1  UNL1        0.1031
      3 N         139.1801  143.3701  156.8219 N.ar    1  UNL1       -0.2121
      4 C         139.8559  144.6534  157.2048 C.ar    1  UNL1        0.2201
      5 N         140.8051  144.6837  158.3658 N.ar    1  UNL1       -0.2163
      6 C         141.0785  143.4308  159.1439 C.ar    1  UNL1        0.0836
      7 C         141.5567  139.8282  158.9584 C.ar    1  UNL1        0.1387
      8 C         141.8301  138.5753  159.7365 C.ar    1  UNL1        0.0369
      9 C         141.2230  138.3889  161.0954 C.ar    1  UNL1        0.0031
     10 C         140.3424  139.4553  161.6762 C.ar    1  UNL1       -0.0001
     11 C         140.0690  140.7082  160.8981 C.ar    1  UNL1        0.0031
     12 C         140.6762  140.8946  159.5392 C.ar    1  UNL1        0.0367
     13 C         139.7353  139.2689  163.0351 C.ar    1  UNL1       -0.0039
     14 C         138.6864  140.2226  163.5252 C.ar    1  UNL1       -0.0003
     15 C         138.0793  140.0361  164.8841 C.ar    1  UNL1        0.0011
     16 C         138.5210  138.8960  165.7529 C.ar    1  UNL1        0.0137
     17 C         139.5699  137.9423  165.2628 C.ar    1  UNL1       -0.0031
     18 C         140.1770  138.1287  163.9039 C.ar    1  UNL1       -0.0218
     19 C         141.2260  137.1749  163.4138 C.3     1  UNL1        0.0310
     20 C         137.9139  138.7095  167.1118 C.2     1  UNL1        0.0729
     21 O         138.4864  139.4326  168.2947 O.co2   1  UNL1       -0.5446
     22 O         136.7342  137.8000  167.2878 O.co2   1  UNL1       -0.5446
     23 C         143.5533  140.5642  157.4678 C.3     1  UNL1        0.2525
     24 O         142.1639  140.0146  157.5995 O.3     1  UNL1       -0.4714
     25 N         139.5824  145.9062  156.4266 N.pl3   1  UNL1       -0.2725
     26 C         139.5877  146.2741  154.9724 C.3     1  UNL1        0.1306
     27 C         139.1957  147.6781  155.3262 C.3     1  UNL1        0.2003
     28 F         138.9222  148.9309  154.5480 F       1  UNL1       -0.2336
     29 C         139.1904  147.3102  156.7804 C.3     1  UNL1        0.1306
     30 C         142.0278  143.4611  160.3050 C.3     1  UNL1        0.1428
     31 N         141.5023  143.3581  161.7062 N.am    1  UNL1       -0.2380
     32 C         140.3462  144.1277  162.2730 C.2     1  UNL1        0.4055
     33 O         139.5127  145.1353  161.5382 O.2     1  UNL1       -0.2262
     34 O         140.1701  143.7128  163.7037 O.3     1  UNL1       -0.4320
     35 C         141.2174  142.6868  164.0211 C.3     1  UNL1        0.2107
     36 C         142.0407  142.4676  162.7865 C.3     1  UNL1        0.1233
     37 C         143.1990  141.5237  162.6553 C.3     1  UNL1        0.0258
     38 C         141.4078  142.0005  165.3411 C.ar    1  UNL1        0.0189
     39 C         140.8064  142.5857  166.5845 C.ar    1  UNL1        0.0031
     40 C         140.9969  141.8994  167.9045 C.ar    1  UNL1        0.0712
     41 C         141.7887  140.6278  167.9813 C.ar    1  UNL1        0.0077
     42 C         142.3902  140.0425  166.7380 C.ar    1  UNL1        0.0712
     43 C         142.1997  140.7289  165.4180 C.ar    1  UNL1        0.0031
     44 C         140.3955  142.4847  169.1478 C.3     1  UNL1        0.4186
     45 F         139.7941  143.0700  170.3910 F       1  UNL1       -0.1659
     46 F         140.0662  143.7409  168.3971 F       1  UNL1       -0.1659
     47 F         140.7248  141.2284  169.8985 F       1  UNL1       -0.1659
     48 C         143.1821  138.7709  166.8149 C.3     1  UNL1        0.4186
     49 F         143.9739  137.4992  166.8917 F       1  UNL1       -0.1659
     50 F         142.9326  138.7048  168.2925 F       1  UNL1       -0.1659
     51 F         143.4316  138.8369  165.3373 F       1  UNL1       -0.1659
@<TRIPOS>UNITY_ATOM_ATTR
21 1
charge -1
@<TRIPOS>BOND
     1    23    24    1
     2    24     7    1
     3     7     8   ar
     4     8     9   ar
     5     9    10   ar
     6    10    13    1
     7    13    14   ar
     8    14    15   ar
     9    15    16   ar
    10    16    20    1
    11    20    21   ar
    12    20    22   ar
    13    16    17   ar
    14    17    18   ar
    15    18    19    1
    16    10    11   ar
    17    11    12   ar
    18    12     1    1
    19     1     2   ar
    20     2     3   ar
    21     3     4   ar
    22     4    25    1
    23    25    26    1
    24    26    27    1
    25    27    28    1
    26    27    29    1
    27     4     5   ar
    28     5     6   ar
    29     6    30    1
    30    30    31    1
    31    31    32   am
    32    32    33    2
    33    32    34    1
    34    34    35    1
    35    35    38    1
    36    38    39   ar
    37    39    40   ar
    38    40    44    1
    39    44    45    1
    40    44    46    1
    41    44    47    1
    42    40    41   ar
    43    41    42   ar
    44    42    48    1
    45    48    49    1
    46    48    50    1
    47    48    51    1
    48    42    43   ar
    49    35    36    1
    50    36    37    1
    51    12     7   ar
    52     6     1   ar
    53    36    31    1
    54    18    13   ar
    55    29    25    1
    56    43    38   ar
@<TRIPOS>MOLECULE
*****
 51 56 0 0 0
SMALL
GASTEIGER

@<TRIPOS>ATOM
      1 C         140.4815  142.2058  158.8399 C.ar    1  UNL1        0.0375
      2 C         139.5203  142.1758  157.6887 C.ar    1  UNL1        0.1031
      3 N         139.2429  143.4277  156.9104 N.ar    1  UNL1       -0.2121
      4 C         139.9267  144.7097  157.2833 C.ar    1  UNL1        0.2201
      5 N         140.8879  144.7397  158.4345 N.ar    1  UNL1       -0.2163
      6 C         141.1653  143.4877  159.2128 C.ar    1  UNL1        0.0836
      7 C         141.6602  139.8997  159.0468 C.ar    1  UNL1        0.1387
      8 C         141.9375  138.6478  159.8251 C.ar    1  UNL1        0.0369
      9 C         141.3136  138.4501  161.1748 C.ar    1  UNL1        0.0031
     10 C         140.4124  139.5042  161.7461 C.ar    1  UNL1       -0.0001
     11 C         140.1350  140.7561  160.9678 C.ar    1  UNL1        0.0031
     12 C         140.7589  140.9538  159.6182 C.ar    1  UNL1        0.0367
     13 C         139.7884  139.3064  163.0958 C.ar    1  UNL1       -0.0039
     14 C         138.7364  140.2583  163.5825 C.ar    1  UNL1       -0.0003
     15 C         138.1125  140.0605  164.9322 C.ar    1  UNL1        0.0011
     16 C         138.5406  138.9108  165.7951 C.ar    1  UNL1        0.0137
     17 C         139.5927  137.9589  165.3084 C.ar    1  UNL1       -0.0031
     18 C         140.2166  138.1567  163.9588 C.ar    1  UNL1       -0.0218
     19 C         141.2687  137.2046  163.4721 C.3     1  UNL1        0.0310
     20 C         137.9167  138.7130  167.1448 C.2     1  UNL1        0.0729
     21 O         138.4846  139.4134  168.3435 O.co2   1  UNL1       -0.5446
     22 O         136.7249  137.8148  167.2958 O.co2   1  UNL1       -0.5446
     23 C         143.6307  140.7480  157.5814 C.3     1  UNL1        0.2525
     24 O         142.2841  140.0975  157.6971 O.3     1  UNL1       -0.4714
     25 N         139.6493  145.9616  156.5050 N.pl3   1  UNL1       -0.2725
     26 C         139.7253  146.3497  155.0581 C.3     1  UNL1        0.1306
     27 C         139.2570  147.7320  155.4043 C.3     1  UNL1        0.2003
     28 F         138.9796  148.9839  154.6260 F       1  UNL1       -0.2336
     29 C         139.1810  147.3439  156.8512 C.3     1  UNL1        0.1306
     30 C         142.1265  143.5178  160.3639 C.3     1  UNL1        0.1428
     31 N         141.6146  143.4269  161.7710 N.am    1  UNL1       -0.2380
     32 C         140.5163  144.2581  162.3650 C.2     1  UNL1        0.4055
     33 O         139.7372  145.3261  161.6563 O.2     1  UNL1       -0.2262
     34 O         140.3340  143.8338  163.7922 O.3     1  UNL1       -0.4320
     35 C         141.3197  142.7403  164.0801 C.3     1  UNL1        0.2107
     36 C         142.1111  142.4888  162.8310 C.3     1  UNL1        0.1233
     37 C         143.2067  141.4770  162.6700 C.3     1  UNL1        0.0258
     38 C         141.4849  142.0241  165.3876 C.ar    1  UNL1        0.0189
     39 C         142.2727  140.7491  165.4502 C.ar    1  UNL1        0.0031
     40 C         142.4379  140.0329  166.7577 C.ar    1  UNL1        0.0712
     41 C         141.8153  140.5916  168.0028 C.ar    1  UNL1        0.0077
     42 C         141.0275  141.8666  167.9403 C.ar    1  UNL1        0.0712
     43 C         140.8623  142.5827  166.6327 C.ar    1  UNL1        0.0031
     44 C         143.2257  138.7580  166.8202 C.3     1  UNL1        0.4186
     45 F         144.0134  137.4830  166.8827 F       1  UNL1       -0.1659
     46 F         143.5133  138.8637  165.3518 F       1  UNL1       -0.1659
     47 F         142.9380  138.6522  168.2886 F       1  UNL1       -0.1659
     48 C         140.4049  142.4253  169.1854 C.3     1  UNL1        0.4186
     49 F         139.7823  142.9839  170.4305 F       1  UNL1       -0.1659
     50 F         140.7027  141.1453  169.9087 F       1  UNL1       -0.1659
     51 F         140.1070  143.7052  168.4622 F       1  UNL1       -0.1659
@<TRIPOS>UNITY_ATOM_ATTR
21 1
charge -1
@<TRIPOS>BOND
     1    23    24    1
     2    24     7    1
     3     7     8   ar
     4     8     9   ar
     5     9    10   ar
     6    10    13    1
     7    13    14   ar
     8    14    15   ar
     9    15    16   ar
    10    16    20    1
    11    20    21   ar
    12    20    22   ar
    13    16    17   ar
    14    17    18   ar
    15    18    19    1
    16    10    11   ar
    17    11    12   ar
    18    12     1    1
    19     1     2   ar
    20     2     3   ar
    21     3     4   ar
    22     4    25    1
    23    25    26    1
    24    26    27    1
    25    27    28    1
    26    27    29    1
    27     4     5   ar
    28     5     6   ar
    29     6    30    1
    30    30    31    1
    31    31    32   am
    32    32    33    2
    33    32    34    1
    34    34    35    1
    35    35    38    1
    36    38    39   ar
    37    39    40   ar
    38    40    44    1
    39    44    45    1
    40    44    46    1
    41    44    47    1
    42    40    41   ar
    43    41    42   ar
    44    42    48    1
    45    48    49    1
    46    48    50    1
    47    48    51    1
    48    42    43   ar
    49    35    36    1
    50    36    37    1
    51    12     7   ar
    52     6     1   ar
    53    36    31    1
    54    18    13   ar
    55    29    25    1
    56    43    38   ar
@<TRIPOS>MOLECULE
*****
 51 56 0 0 0
SMALL
GASTEIGER

@<TRIPOS>ATOM
      1 C         142.0050  142.6351  159.1293 C.ar    1  UNL1        0.0375
      2 C         142.9577  143.4828  158.3394 C.ar    1  UNL1        0.1031
      3 N         142.4334  144.5750  157.4551 N.ar    1  UNL1       -0.2121
      4 C         140.9565  144.8197  157.3606 C.ar    1  UNL1        0.2201
      5 N         140.0038  143.9720  158.1505 N.ar    1  UNL1       -0.2163
      6 C         140.5282  142.8797  159.0349 C.ar    1  UNL1        0.0836
      7 C         143.0089  140.2555  159.4115 C.ar    1  UNL1        0.1387
      8 C         143.5332  139.1633  160.2959 C.ar    1  UNL1        0.0369
      9 C         143.5780  139.3585  161.7825 C.ar    1  UNL1        0.0031
     10 C         143.0984  140.6458  162.3847 C.ar    1  UNL1       -0.0001
     11 C         142.5741  141.7380  161.5003 C.ar    1  UNL1        0.0031
     12 C         142.5294  141.5429  160.0137 C.ar    1  UNL1        0.0367
     13 C         143.1432  140.8410  163.8713 C.ar    1  UNL1       -0.0039
     14 C         143.6257  142.1412  164.4428 C.ar    1  UNL1       -0.0003
     15 C         143.6704  142.3363  165.9294 C.ar    1  UNL1        0.0011
     16 C         143.2327  141.2313  166.8444 C.ar    1  UNL1        0.0137
     17 C         142.7502  139.9312  166.2729 C.ar    1  UNL1       -0.0031
     18 C         142.7054  139.7360  164.7863 C.ar    1  UNL1       -0.0218
     19 C         142.2229  138.4357  164.2147 C.3     1  UNL1        0.0310
     20 C         143.2774  141.4265  168.3310 C.2     1  UNL1        0.0729
     21 O         143.0640  140.2585  169.2475 O.co2   1  UNL1       -0.5446
     22 O         143.5356  142.7897  168.9010 O.co2   1  UNL1       -0.5446
     23 C         142.9902  138.6755  157.3492 C.3     1  UNL1        0.2525
     24 O         142.9642  140.0603  157.9250 O.3     1  UNL1       -0.4714
     25 N         140.4322  145.9119  156.4762 N.pl3   1  UNL1       -0.2725
     26 C         139.4192  147.0073  156.6307 C.3     1  UNL1        0.1306
     27 C         139.6908  147.4566  155.2255 C.3     1  UNL1        0.2003
     28 F         139.1665  148.5488  154.3412 F       1  UNL1       -0.2336
     29 C         140.7038  146.3612  155.0711 C.3     1  UNL1        0.1306
     30 C         139.5755  142.0320  159.8248 C.3     1  UNL1        0.1428
     31 N         139.4170  142.2572  161.2994 N.am    1  UNL1       -0.2380
     32 C         139.2341  143.5845  161.9739 C.2     1  UNL1        0.4055
     33 O         139.1778  144.9195  161.2924 O.2     1  UNL1       -0.2262
     34 O         139.1175  143.3422  163.4497 O.3     1  UNL1       -0.4320
     35 C         139.2283  141.8652  163.6871 C.3     1  UNL1        0.2107
     36 C         139.4134  141.1947  162.3582 C.3     1  UNL1        0.1233
     37 C         139.5677  139.7205  162.1283 C.3     1  UNL1        0.0258
     38 C         139.1651  141.1793  165.0195 C.ar    1  UNL1        0.0189
     39 C         139.6698  141.8777  166.2474 C.ar    1  UNL1        0.0031
     40 C         139.6066  141.1918  167.5798 C.ar    1  UNL1        0.0712
     41 C         139.0388  139.8073  167.6845 C.ar    1  UNL1        0.0077
     42 C         138.5341  139.1088  166.4566 C.ar    1  UNL1        0.0712
     43 C         138.5973  139.7949  165.1242 C.ar    1  UNL1        0.0031
     44 C         140.1112  141.8902  168.8076 C.3     1  UNL1        0.4186
     45 F         140.6158  142.5886  170.0354 F       1  UNL1       -0.1659
     46 F         140.3864  143.1204  167.9947 F       1  UNL1       -0.1659
     47 F         139.8360  140.6599  169.6206 F       1  UNL1       -0.1659
     48 C         137.9663  137.7244  166.5613 C.3     1  UNL1        0.4186
     49 F         137.3985  136.3400  166.6660 F       1  UNL1       -0.1659
     50 F         137.0500  138.1831  167.6567 F       1  UNL1       -0.1659
     51 F         138.8826  137.2658  165.4658 F       1  UNL1       -0.1659
@<TRIPOS>UNITY_ATOM_ATTR
21 1
charge -1
@<TRIPOS>BOND
     1    23    24    1
     2    24     7    1
     3     7     8   ar
     4     8     9   ar
     5     9    10   ar
     6    10    13    1
     7    13    14   ar
     8    14    15   ar
     9    15    16   ar
    10    16    20    1
    11    20    21   ar
    12    20    22   ar
    13    16    17   ar
    14    17    18   ar
    15    18    19    1
    16    10    11   ar
    17    11    12   ar
    18    12     1    1
    19     1     2   ar
    20     2     3   ar
    21     3     4   ar
    22     4    25    1
    23    25    26    1
    24    26    27    1
    25    27    28    1
    26    27    29    1
    27     4     5   ar
    28     5     6   ar
    29     6    30    1
    30    30    31    1
    31    31    32   am
    32    32    33    2
    33    32    34    1
    34    34    35    1
    35    35    38    1
    36    38    39   ar
    37    39    40   ar
    38    40    44    1
    39    44    45    1
    40    44    46    1
    41    44    47    1
    42    40    41   ar
    43    41    42   ar
    44    42    48    1
    45    48    49    1
    46    48    50    1
    47    48    51    1
    48    42    43   ar
    49    35    36    1
    50    36    37    1
    51    12     7   ar
    52     6     1   ar
    53    36    31    1
    54    18    13   ar
    55    29    25    1
    56    43    38   ar
@<TRIPOS>MOLECULE
*****
 51 56 0 0 0
SMALL
GASTEIGER

@<TRIPOS>ATOM
      1 C         140.8915  141.9046  158.1823 C.ar    1  UNL1        0.0375
      2 C         141.7595  142.5989  157.1751 C.ar    1  UNL1        0.1031
      3 N         141.3435  143.9267  156.6149 N.ar    1  UNL1       -0.2121
      4 C         140.0593  144.5602  157.0619 C.ar    1  UNL1        0.2201
      5 N         139.1913  143.8659  158.0691 N.ar    1  UNL1       -0.2163
      6 C         139.6074  142.5381  158.6293 C.ar    1  UNL1        0.0836
      7 C         141.3761  139.3740  157.8489 C.ar    1  UNL1        0.1387
      8 C         141.7922  138.0462  158.4092 C.ar    1  UNL1        0.0369
      9 C         142.1397  137.9213  159.8630 C.ar    1  UNL1        0.0031
     10 C         142.0712  139.1240  160.7566 C.ar    1  UNL1       -0.0001
     11 C         141.6551  140.4518  160.1964 C.ar    1  UNL1        0.0031
     12 C         141.3076  140.5768  158.7425 C.ar    1  UNL1        0.0367
     13 C         142.4187  138.9991  162.2104 C.ar    1  UNL1       -0.0039
     14 C         141.5422  138.1954  163.1247 C.ar    1  UNL1       -0.0003
     15 C         141.8897  138.0704  164.5785 C.ar    1  UNL1        0.0011
     16 C         143.1137  138.7491  165.1181 C.ar    1  UNL1        0.0137
     17 C         143.9901  139.5528  164.2038 C.ar    1  UNL1       -0.0031
     18 C         143.6426  139.6778  162.7500 C.ar    1  UNL1       -0.0218
     19 C         144.5191  140.4816  161.8358 C.3     1  UNL1        0.0310
     20 C         143.4612  138.6242  166.5719 C.2     1  UNL1        0.0729
     21 O         144.3847  137.5352  167.0314 O.co2   1  UNL1       -0.5446
     22 O         142.8852  139.5882  167.5663 O.co2   1  UNL1       -0.5446
     23 C         142.0900  139.3130  155.3516 C.3     1  UNL1        0.2525
     24 O         141.0286  139.4989  156.3951 O.3     1  UNL1       -0.4714
     25 N         139.6433  145.8880  156.5017 N.pl3   1  UNL1       -0.2725
     26 C         139.1733  147.1863  157.0879 C.3     1  UNL1        0.1306
     27 C         139.0549  147.7658  155.7094 C.3     1  UNL1        0.2003
     28 F         138.6389  149.0936  155.1492 F       1  UNL1       -0.2336
     29 C         139.5249  146.4675  155.1232 C.3     1  UNL1        0.1306
     30 C         138.7393  141.8437  159.6364 C.3     1  UNL1        0.1428
     31 N         138.9325  142.1060  161.1007 N.am    1  UNL1       -0.2380
     32 C         139.2199  143.4382  161.7273 C.2     1  UNL1        0.4055
     33 O         139.3646  144.7420  160.9998 O.2     1  UNL1       -0.2262
     34 O         139.3372  143.2377  163.2093 O.3     1  UNL1       -0.4320
     35 C         139.1222  141.7816  163.4985 C.3     1  UNL1        0.2107
     36 C         138.8721  141.0822  162.1953 C.3     1  UNL1        0.1233
     37 C         138.6080  139.6164  162.0178 C.3     1  UNL1        0.0258
     38 C         139.1522  141.1379  164.8529 C.ar    1  UNL1        0.0189
     39 C         138.5228  139.7918  165.0578 C.ar    1  UNL1        0.0031
     40 C         138.5527  139.1482  166.4123 C.ar    1  UNL1        0.0712
     41 C         139.2120  139.8506  167.5620 C.ar    1  UNL1        0.0077
     42 C         139.8414  141.1967  167.3573 C.ar    1  UNL1        0.0712
     43 C         139.8115  141.8403  166.0027 C.ar    1  UNL1        0.0031
     44 C         137.9233  137.8021  166.6171 C.3     1  UNL1        0.4186
     45 F         137.2940  136.4560  166.8219 F       1  UNL1       -0.1659
     46 F         137.0806  138.3644  167.7232 F       1  UNL1       -0.1659
     47 F         138.7661  137.2397  165.5109 F       1  UNL1       -0.1659
     48 C         140.5007  141.8991  168.5070 C.3     1  UNL1        0.4186
     49 F         141.1600  142.6015  169.6568 F       1  UNL1       -0.1659
     50 F         141.5039  142.4977  167.5661 F       1  UNL1       -0.1659
     51 F         139.4975  141.3005  169.4480 F       1  UNL1       -0.1659
@<TRIPOS>UNITY_ATOM_ATTR
21 1
charge -1
@<TRIPOS>BOND
     1    23    24    1
     2    24     7    1
     3     7     8   ar
     4     8     9   ar
     5     9    10   ar
     6    10    13    1
     7    13    14   ar
     8    14    15   ar
     9    15    16   ar
    10    16    20    1
    11    20    21   ar
    12    20    22   ar
    13    16    17   ar
    14    17    18   ar
    15    18    19    1
    16    10    11   ar
    17    11    12   ar
    18    12     1    1
    19     1     2   ar
    20     2     3   ar
    21     3     4   ar
    22     4    25    1
    23    25    26    1
    24    26    27    1
    25    27    28    1
    26    27    29    1
    27     4     5   ar
    28     5     6   ar
    29     6    30    1
    30    30    31    1
    31    31    32   am
    32    32    33    2
    33    32    34    1
    34    34    35    1
    35    35    38    1
    36    38    39   ar
    37    39    40   ar
    38    40    44    1
    39    44    45    1
    40    44    46    1
    41    44    47    1
    42    40    41   ar
    43    41    42   ar
    44    42    48    1
    45    48    49    1
    46    48    50    1
    47    48    51    1
    48    42    43   ar
    49    35    36    1
    50    36    37    1
    51    12     7   ar
    52     6     1   ar
    53    36    31    1
    54    18    13   ar
    55    29    25    1
    56    43    38   ar
@<TRIPOS>MOLECULE
*****
 51 56 0 0 0
SMALL
GASTEIGER

@<TRIPOS>ATOM
      1 C         140.7336  140.8114  157.8374 C.ar    1  UNL1        0.0375
      2 C         141.3147  141.5916  156.6957 C.ar    1  UNL1        0.1031
      3 N         140.4083  142.2314  155.6862 N.ar    1  UNL1       -0.2121
      4 C         138.9207  142.0910  155.8185 C.ar    1  UNL1        0.2201
      5 N         138.3396  141.3108  156.9602 N.ar    1  UNL1       -0.2163
      6 C         139.2461  140.6710  157.9697 C.ar    1  UNL1        0.0836
      7 C         142.1816  138.7944  158.6022 C.ar    1  UNL1        0.1387
      8 C         143.0881  138.1547  159.6117 C.ar    1  UNL1        0.0369
      9 C         143.4529  138.8922  160.8659 C.ar    1  UNL1        0.0031
     10 C         142.9113  140.2694  161.1106 C.ar    1  UNL1       -0.0001
     11 C         142.0049  140.9091  160.1011 C.ar    1  UNL1        0.0031
     12 C         141.6401  140.1716  158.8469 C.ar    1  UNL1        0.0367
     13 C         143.2762  141.0068  162.3648 C.ar    1  UNL1       -0.0039
     14 C         144.0059  142.3146  162.2805 C.ar    1  UNL1       -0.0003
     15 C         144.3708  143.0521  163.5347 C.ar    1  UNL1        0.0011
     16 C         144.0059  142.4818  164.8732 C.ar    1  UNL1        0.0137
     17 C         143.2762  141.1741  164.9575 C.ar    1  UNL1       -0.0031
     18 C         142.9113  140.4366  163.7033 C.ar    1  UNL1       -0.0218
     19 C         142.1815  139.1287  163.7876 C.3     1  UNL1        0.0310
     20 C         144.3708  143.2193  166.1274 C.2     1  UNL1        0.0729
     21 O         145.3388  144.3637  166.0699 O.co2   1  UNL1       -0.5446
     22 O         143.7676  142.8125  167.4391 O.co2   1  UNL1       -0.5446
     23 C         142.4998  136.7643  157.0124 C.3     1  UNL1        0.2525
     24 O         141.8168  138.0569  157.3480 O.3     1  UNL1       -0.4714
     25 N         138.0143  142.7307  154.8090 N.pl3   1  UNL1       -0.2725
     26 C         137.2761  144.0336  154.7215 C.3     1  UNL1        0.1306
     27 C         136.7324  143.6356  153.3814 C.3     1  UNL1        0.2003
     28 F         135.8260  144.2753  152.3719 F       1  UNL1       -0.2336
     29 C         137.4706  142.3327  153.4689 C.3     1  UNL1        0.1306
     30 C         138.6649  139.8908  159.1115 C.3     1  UNL1        0.1428
     31 N         138.6214  140.4916  160.4852 N.am    1  UNL1       -0.2380
     32 C         138.3779  141.9361  160.8083 C.2     1  UNL1        0.4055
     33 O         138.1354  143.0332  159.8146 O.2     1  UNL1       -0.2262
     34 O         138.4197  142.0908  162.2998 O.3     1  UNL1       -0.4320
     35 C         138.6889  140.7419  162.8984 C.3     1  UNL1        0.2107
     36 C         138.8136  139.7536  161.7769 C.3     1  UNL1        0.1233
     37 C         139.0830  138.2852  161.9216 C.3     1  UNL1        0.0258
     38 C         138.8119  140.4352  164.3615 C.ar    1  UNL1        0.0189
     39 C         138.2108  139.1784  164.9175 C.ar    1  UNL1        0.0031
     40 C         138.3338  138.8718  166.3806 C.ar    1  UNL1        0.0712
     41 C         139.0579  139.8219  167.2878 C.ar    1  UNL1        0.0077
     42 C         139.6590  141.0787  166.7318 C.ar    1  UNL1        0.0712
     43 C         139.5360  141.3853  165.2686 C.ar    1  UNL1        0.0031
     44 C         137.7327  137.6150  166.9366 C.3     1  UNL1        0.4186
     45 F         137.1316  136.3582  167.4926 F       1  UNL1       -0.1659
     46 F         138.3384  136.8280  165.8125 F       1  UNL1       -0.1659
     47 F         137.1269  138.4020  168.0608 F       1  UNL1       -0.1659
     48 C         140.3831  142.0288  167.6390 C.3     1  UNL1        0.4186
     49 F         141.1072  142.9789  168.5462 F       1  UNL1       -0.1659
     50 F         140.7678  142.8659  166.4553 F       1  UNL1       -0.1659
     51 F         139.9984  141.1918  168.8228 F       1  UNL1       -0.1659
@<TRIPOS>UNITY_ATOM_ATTR
21 1
charge -1
@<TRIPOS>BOND
     1    23    24    1
     2    24     7    1
     3     7     8   ar
     4     8     9   ar
     5     9    10   ar
     6    10    13    1
     7    13    14   ar
     8    14    15   ar
     9    15    16   ar
    10    16    20    1
    11    20    21   ar
    12    20    22   ar
    13    16    17   ar
    14    17    18   ar
    15    18    19    1
    16    10    11   ar
    17    11    12   ar
    18    12     1    1
    19     1     2   ar
    20     2     3   ar
    21     3     4   ar
    22     4    25    1
    23    25    26    1
    24    26    27    1
    25    27    28    1
    26    27    29    1
    27     4     5   ar
    28     5     6   ar
    29     6    30    1
    30    30    31    1
    31    31    32   am
    32    32    33    2
    33    32    34    1
    34    34    35    1
    35    35    38    1
    36    38    39   ar
    37    39    40   ar
    38    40    44    1
    39    44    45    1
    40    44    46    1
    41    44    47    1
    42    40    41   ar
    43    41    42   ar
    44    42    48    1
    45    48    49    1
    46    48    50    1
    47    48    51    1
    48    42    43   ar
    49    35    36    1
    50    36    37    1
    51    12     7   ar
    52     6     1   ar
    53    36    31    1
    54    18    13   ar
    55    29    25    1
    56    43    38   ar
@<TRIPOS>MOLECULE
*****
 51 56 0 0 0
SMALL
GASTEIGER

@<TRIPOS>ATOM
      1 C         142.7795  140.4633  160.5039 C.ar    1  UNL1        0.0375
      2 C         143.7097  139.3663  160.0780 C.ar    1  UNL1        0.1031
      3 N         143.3020  138.4175  158.9901 N.ar    1  UNL1       -0.2121
      4 C         141.9641  138.5656  158.3281 C.ar    1  UNL1        0.2201
      5 N         141.0340  139.6626  158.7540 N.ar    1  UNL1       -0.2163
      6 C         141.4417  140.6115  159.8419 C.ar    1  UNL1        0.0836
      7 C         143.7406  142.7616  161.2416 C.ar    1  UNL1        0.1387
      8 C         144.1483  143.7104  162.3295 C.ar    1  UNL1        0.0369
      9 C         144.0026  143.3097  163.7676 C.ar    1  UNL1        0.0031
     10 C         143.4493  141.9602  164.1178 C.ar    1  UNL1       -0.0001
     11 C         143.0416  141.0115  163.0299 C.ar    1  UNL1        0.0031
     12 C         143.1872  141.4122  161.5918 C.ar    1  UNL1        0.0367
     13 C         143.3037  141.5595  165.5560 C.ar    1  UNL1       -0.0039
     14 C         143.4407  142.5884  166.6388 C.ar    1  UNL1       -0.0003
     15 C         143.2951  142.1877  168.0769 C.ar    1  UNL1        0.0011
     16 C         143.0124  140.7581  168.4323 C.ar    1  UNL1        0.0137
     17 C         142.8754  139.7292  167.3494 C.ar    1  UNL1       -0.0031
     18 C         143.0210  140.1299  165.9113 C.ar    1  UNL1       -0.0218
     19 C         142.8840  139.1009  164.8285 C.3     1  UNL1        0.0310
     20 C         142.8668  140.3574  169.8704 C.2     1  UNL1        0.0729
     21 O         142.8306  138.9053  170.2444 O.co2   1  UNL1       -0.5446
     22 O         142.7574  141.4089  170.9345 O.co2   1  UNL1       -0.5446
     23 C         142.7831  143.9135  159.1188 C.3     1  UNL1        0.2525
     24 O         143.8862  143.1623  159.8034 O.3     1  UNL1       -0.4714
     25 N         141.5565  137.6168  157.2403 N.pl3   1  UNL1       -0.2725
     26 C         142.2725  136.6165  156.3819 C.3     1  UNL1        0.1306
     27 C         140.9800  136.2749  155.7017 C.3     1  UNL1        0.2003
     28 F         140.5723  135.3261  154.6139 F       1  UNL1       -0.2336
     29 C         140.2639  137.2752  156.5601 C.3     1  UNL1        0.1306
     30 C         140.5115  141.7085  160.2679 C.3     1  UNL1        0.1428
     31 N         140.2661  141.9597  161.7262 N.am    1  UNL1       -0.2380
     32 C         140.3068  143.2941  162.4100 C.2     1  UNL1        0.4055
     33 O         140.6000  144.6116  161.7556 O.2     1  UNL1       -0.2262
     34 O         140.0027  143.0798  163.8632 O.3     1  UNL1       -0.4320
     35 C         139.7741  141.6128  164.0774 C.3     1  UNL1        0.2107
     36 C         139.9369  140.9206  162.7567 C.3     1  UNL1        0.1233
     37 C         139.7954  139.4479  162.5097 C.3     1  UNL1        0.0258
     38 C         139.4412  140.9538  165.3831 C.ar    1  UNL1        0.0189
     39 C         139.7550  141.6481  166.6752 C.ar    1  UNL1        0.0031
     40 C         139.4221  140.9891  167.9808 C.ar    1  UNL1        0.0712
     41 C         138.7754  139.6358  167.9945 C.ar    1  UNL1        0.0077
     42 C         138.4616  138.9414  166.7024 C.ar    1  UNL1        0.0712
     43 C         138.7945  139.6005  165.3967 C.ar    1  UNL1        0.0031
     44 C         139.7359  141.6834  169.2729 C.3     1  UNL1        0.4186
     45 F         140.0497  142.3778  170.5649 F       1  UNL1       -0.1659
     46 F         140.0652  142.9377  168.5189 F       1  UNL1       -0.1659
     47 F         139.4066  140.4292  170.0269 F       1  UNL1       -0.1659
     48 C         137.8149  137.5880  166.7161 C.3     1  UNL1        0.4186
     49 F         137.1682  136.2346  166.7297 F       1  UNL1       -0.1659
     50 F         136.8969  138.0378  167.8138 F       1  UNL1       -0.1659
     51 F         138.7329  137.1382  165.6184 F       1  UNL1       -0.1659
@<TRIPOS>UNITY_ATOM_ATTR
21 1
charge -1
@<TRIPOS>BOND
     1    23    24    1
     2    24     7    1
     3     7     8   ar
     4     8     9   ar
     5     9    10   ar
     6    10    13    1
     7    13    14   ar
     8    14    15   ar
     9    15    16   ar
    10    16    20    1
    11    20    21   ar
    12    20    22   ar
    13    16    17   ar
    14    17    18   ar
    15    18    19    1
    16    10    11   ar
    17    11    12   ar
    18    12     1    1
    19     1     2   ar
    20     2     3   ar
    21     3     4   ar
    22     4    25    1
    23    25    26    1
    24    26    27    1
    25    27    28    1
    26    27    29    1
    27     4     5   ar
    28     5     6   ar
    29     6    30    1
    30    30    31    1
    31    31    32   am
    32    32    33    2
    33    32    34    1
    34    34    35    1
    35    35    38    1
    36    38    39   ar
    37    39    40   ar
    38    40    44    1
    39    44    45    1
    40    44    46    1
    41    44    47    1
    42    40    41   ar
    43    41    42   ar
    44    42    48    1
    45    48    49    1
    46    48    50    1
    47    48    51    1
    48    42    43   ar
    49    35    36    1
    50    36    37    1
    51    12     7   ar
    52     6     1   ar
    53    36    31    1
    54    18    13   ar
    55    29    25    1
    56    43    38   ar
@<TRIPOS>MOLECULE
*****
 51 56 0 0 0
SMALL
GASTEIGER

@<TRIPOS>ATOM
      1 C         140.6190  139.0149  158.2142 C.ar    1  UNL1        0.0375
      2 C         139.5635  138.2558  157.4661 C.ar    1  UNL1        0.1031
      3 N         139.9585  137.2053  156.4710 N.ar    1  UNL1       -0.2121
      4 C         141.4091  136.9137  156.2240 C.ar    1  UNL1        0.2201
      5 N         142.4646  137.6728  156.9722 N.ar    1  UNL1       -0.2163
      6 C         142.0695  138.7235  157.9673 C.ar    1  UNL1        0.0836
      7 C         140.1046  141.4979  158.7803 C.ar    1  UNL1        0.1387
      8 C         139.7096  142.5484  159.7754 C.ar    1  UNL1        0.0369
      9 C         139.4337  142.1666  161.1996 C.ar    1  UNL1        0.0031
     10 C         139.5530  140.7342  161.6286 C.ar    1  UNL1       -0.0001
     11 C         139.9480  139.6837  160.6335 C.ar    1  UNL1        0.0031
     12 C         140.2239  140.0655  159.2094 C.ar    1  UNL1        0.0367
     13 C         139.2772  140.3524  163.0527 C.ar    1  UNL1       -0.0039
     14 C         138.6922  139.0079  163.3689 C.ar    1  UNL1       -0.0003
     15 C         138.4164  138.6260  164.7930 C.ar    1  UNL1        0.0011
     16 C         138.7255  139.5887  165.9010 C.ar    1  UNL1        0.0137
     17 C         139.3105  140.9333  165.5848 C.ar    1  UNL1       -0.0031
     18 C         139.5863  141.3151  164.1607 C.ar    1  UNL1       -0.0218
     19 C         140.1713  142.6597  163.8445 C.3     1  UNL1        0.0310
     20 C         138.4497  139.2069  167.3251 C.2     1  UNL1        0.0729
     21 O         137.3610  138.2246  167.6408 O.co2   1  UNL1       -0.5446
     22 O         139.2625  139.8074  168.4335 O.co2   1  UNL1       -0.5446
     23 C         141.4533  142.8798  157.0422 C.3     1  UNL1        0.2525
     24 O         140.3804  141.8797  157.3562 O.3     1  UNL1       -0.4714
     25 N         141.8041  135.8632  155.2290 N.pl3   1  UNL1       -0.2725
     26 C         142.4128  134.4950  155.3162 C.3     1  UNL1        0.1306
     27 C         142.3627  134.3774  153.8217 C.3     1  UNL1        0.2003
     28 F         142.7578  133.3268  152.8266 F       1  UNL1       -0.2336
     29 C         141.7541  135.7456  153.7344 C.3     1  UNL1        0.1306
     30 C         143.1250  139.4825  158.7155 C.3     1  UNL1        0.1428
     31 N         143.2205  139.3612  160.2075 N.am    1  UNL1       -0.2380
     32 C         143.3535  138.0831  160.9814 C.2     1  UNL1        0.4055
     33 O         143.4144  136.7021  160.3991 O.2     1  UNL1       -0.2262
     34 O         143.4150  138.4286  162.4398 O.3     1  UNL1       -0.4320
     35 C         143.3200  139.9202  162.5672 C.3     1  UNL1        0.2107
     36 C         143.1997  140.4965  161.1876 C.3     1  UNL1        0.1233
     37 C         143.0798  141.9525  160.8477 C.3     1  UNL1        0.0258
     38 C         143.3414  140.6986  163.8491 C.ar    1  UNL1        0.0189
     39 C         143.7376  142.1454  163.8416 C.ar    1  UNL1        0.0031
     40 C         143.7591  142.9238  165.1235 C.ar    1  UNL1        0.0712
     41 C         143.3842  142.2557  166.4131 C.ar    1  UNL1        0.0077
     42 C         142.9879  140.8089  166.4207 C.ar    1  UNL1        0.0712
     43 C         142.9665  140.0305  165.1387 C.ar    1  UNL1        0.0031
     44 C         144.1553  144.3705  165.1159 C.3     1  UNL1        0.4186
     45 F         144.5516  145.8172  165.1084 F       1  UNL1       -0.1659
     46 F         145.2556  144.0742  166.0914 F       1  UNL1       -0.1659
     47 F         143.0550  144.6668  164.1404 F       1  UNL1       -0.1659
     48 C         142.6130  140.1408  167.7103 C.3     1  UNL1        0.4186
     49 F         142.2381  139.4726  168.9999 F       1  UNL1       -0.1659
     50 F         142.0787  138.9658  166.9462 F       1  UNL1       -0.1659
     51 F         143.1472  141.3158  168.4744 F       1  UNL1       -0.1659
@<TRIPOS>UNITY_ATOM_ATTR
21 1
charge -1
@<TRIPOS>BOND
     1    23    24    1
     2    24     7    1
     3     7     8   ar
     4     8     9   ar
     5     9    10   ar
     6    10    13    1
     7    13    14   ar
     8    14    15   ar
     9    15    16   ar
    10    16    20    1
    11    20    21   ar
    12    20    22   ar
    13    16    17   ar
    14    17    18   ar
    15    18    19    1
    16    10    11   ar
    17    11    12   ar
    18    12     1    1
    19     1     2   ar
    20     2     3   ar
    21     3     4   ar
    22     4    25    1
    23    25    26    1
    24    26    27    1
    25    27    28    1
    26    27    29    1
    27     4     5   ar
    28     5     6   ar
    29     6    30    1
    30    30    31    1
    31    31    32   am
    32    32    33    2
    33    32    34    1
    34    34    35    1
    35    35    38    1
    36    38    39   ar
    37    39    40   ar
    38    40    44    1
    39    44    45    1
    40    44    46    1
    41    44    47    1
    42    40    41   ar
    43    41    42   ar
    44    42    48    1
    45    48    49    1
    46    48    50    1
    47    48    51    1
    48    42    43   ar
    49    35    36    1
    50    36    37    1
    51    12     7   ar
    52     6     1   ar
    53    36    31    1
    54    18    13   ar
    55    29    25    1
    56    43    38   ar
@<TRIPOS>MOLECULE
*****
 51 56 0 0 0
SMALL
GASTEIGER

@<TRIPOS>ATOM
      1 C         140.1622  141.1877  157.7198 C.ar    1  UNL1        0.0375
      2 C         139.5828  142.4372  157.1255 C.ar    1  UNL1        0.1031
      3 N         138.1822  142.4329  156.5889 N.ar    1  UNL1       -0.2121
      4 C         137.3607  141.1791  156.6465 C.ar    1  UNL1        0.2201
      5 N         137.9401  139.9296  157.2407 N.ar    1  UNL1       -0.2163
      6 C         139.3408  139.9339  157.7774 C.ar    1  UNL1        0.0836
      7 C         142.7050  140.7810  157.3753 C.ar    1  UNL1        0.1387
      8 C         144.1056  140.7853  157.9120 C.ar    1  UNL1        0.0369
      9 C         144.3642  141.2008  159.3299 C.ar    1  UNL1        0.0031
     10 C         143.2221  141.6119  160.2111 C.ar    1  UNL1       -0.0001
     11 C         141.8215  141.6076  159.6744 C.ar    1  UNL1        0.0031
     12 C         141.5629  141.1921  158.2565 C.ar    1  UNL1        0.0367
     13 C         143.4807  142.0274  161.6291 C.ar    1  UNL1       -0.0039
     14 C         143.1545  143.4225  162.0732 C.ar    1  UNL1       -0.0003
     15 C         143.4131  143.8380  163.4911 C.ar    1  UNL1        0.0011
     16 C         143.9979  142.8584  164.4649 C.ar    1  UNL1        0.0137
     17 C         144.3241  141.4633  164.0208 C.ar    1  UNL1       -0.0031
     18 C         144.0655  141.0478  162.6029 C.ar    1  UNL1       -0.0218
     19 C         144.3917  139.6526  162.1588 C.3     1  UNL1        0.0310
     20 C         144.2565  143.2738  165.8828 C.2     1  UNL1        0.0729
     21 O         145.2777  144.3315  166.1801 O.co2   1  UNL1       -0.5446
     22 O         143.4938  142.6316  167.0035 O.co2   1  UNL1       -0.5446
     23 C         142.4110  138.9099  155.5969 C.3     1  UNL1        0.2525
     24 O         142.4464  140.3655  155.9574 O.3     1  UNL1       -0.4714
     25 N         135.9601  141.1748  156.1098 N.pl3   1  UNL1       -0.2725
     26 C         134.7014  140.4270  156.4363 C.3     1  UNL1        0.1306
     27 C         133.9792  141.1687  155.3508 C.3     1  UNL1        0.2003
     28 F         132.5785  141.1644  154.8141 F       1  UNL1       -0.2336
     29 C         135.2378  141.9165  155.0243 C.3     1  UNL1        0.1306
     30 C         139.9201  138.6845  158.3717 C.3     1  UNL1        0.1428
     31 N         140.3272  138.6594  159.8153 N.am    1  UNL1       -0.2380
     32 C         141.6242  138.1352  160.3565 C.2     1  UNL1        0.4055
     33 O         142.7418  137.5440  159.5495 O.2     1  UNL1       -0.2262
     34 O         141.6073  138.3059  161.8468 O.3     1  UNL1       -0.4320
     35 C         140.2998  138.9357  162.2264 C.3     1  UNL1        0.2107
     36 C         139.5087  139.1541  160.9708 C.3     1  UNL1        0.1233
     37 C         138.1395  139.7608  160.8857 C.3     1  UNL1        0.0258
     38 C         139.8607  139.2855  163.6172 C.ar    1  UNL1        0.0189
     39 C         139.0653  138.3012  164.4226 C.ar    1  UNL1        0.0031
     40 C         138.6262  138.6511  165.8135 C.ar    1  UNL1        0.0712
     41 C         138.9823  139.9853  166.3991 C.ar    1  UNL1        0.0077
     42 C         139.7777  140.9697  165.5938 C.ar    1  UNL1        0.0712
     43 C         140.2168  140.6198  164.2029 C.ar    1  UNL1        0.0031
     44 C         137.8309  137.6667  166.6188 C.3     1  UNL1        0.4186
     45 F         137.0355  136.6824  167.4241 F       1  UNL1       -0.1659
     46 F         137.3715  138.7747  167.5195 F       1  UNL1       -0.1659
     47 F         138.2902  136.5586  165.7180 F       1  UNL1       -0.1659
     48 C         140.1338  142.3039  166.1795 C.3     1  UNL1        0.4186
     49 F         140.4899  143.6382  166.7652 F       1  UNL1       -0.1659
     50 F         139.9822  141.7383  167.5604 F       1  UNL1       -0.1659
     51 F         140.2854  142.8696  164.7986 F       1  UNL1       -0.1659
@<TRIPOS>UNITY_ATOM_ATTR
21 1
charge -1
@<TRIPOS>BOND
     1    23    24    1
     2    24     7    1
     3     7     8   ar
     4     8     9   ar
     5     9    10   ar
     6    10    13    1
     7    13    14   ar
     8    14    15   ar
     9    15    16   ar
    10    16    20    1
    11    20    21   ar
    12    20    22   ar
    13    16    17   ar
    14    17    18   ar
    15    18    19    1
    16    10    11   ar
    17    11    12   ar
    18    12     1    1
    19     1     2   ar
    20     2     3   ar
    21     3     4   ar
    22     4    25    1
    23    25    26    1
    24    26    27    1
    25    27    28    1
    26    27    29    1
    27     4     5   ar
    28     5     6   ar
    29     6    30    1
    30    30    31    1
    31    31    32   am
    32    32    33    2
    33    32    34    1
    34    34    35    1
    35    35    38    1
    36    38    39   ar
    37    39    40   ar
    38    40    44    1
    39    44    45    1
    40    44    46    1
    41    44    47    1
    42    40    41   ar
    43    41    42   ar
    44    42    48    1
    45    48    49    1
    46    48    50    1
    47    48    51    1
    48    42    43   ar
    49    35    36    1
    50    36    37    1
    51    12     7   ar
    52     6     1   ar
    53    36    31    1
    54    18    13   ar
    55    29    25    1
    56    43    38   ar
@<TRIPOS>MOLECULE
*****
 51 56 0 0 0
SMALL
GASTEIGER

@<TRIPOS>ATOM
      1 C         142.0096  141.7152  158.5609 C.ar    1  UNL1        0.0375
      2 C         142.5556  140.5467  157.7950 C.ar    1  UNL1        0.1031
      3 N         143.9272  140.6199  157.1924 N.ar    1  UNL1       -0.2121
      4 C         144.7529  141.8616  157.3555 C.ar    1  UNL1        0.2201
      5 N         144.2068  143.0301  158.1213 N.ar    1  UNL1       -0.2163
      6 C         142.8351  142.9569  158.7240 C.ar    1  UNL1        0.0836
      7 C         139.4585  142.1842  158.4119 C.ar    1  UNL1        0.1387
      8 C         138.0869  142.1110  159.0146 C.ar    1  UNL1        0.0369
      9 C         137.8946  141.4955  160.3689 C.ar    1  UNL1        0.0031
     10 C         139.0740  140.9533  161.1206 C.ar    1  UNL1       -0.0001
     11 C         140.4456  141.0265  160.5179 C.ar    1  UNL1        0.0031
     12 C         140.6379  141.6420  159.1636 C.ar    1  UNL1        0.0367
     13 C         138.8818  140.3378  162.4749 C.ar    1  UNL1       -0.0039
     14 C         138.3262  141.1595  163.6001 C.ar    1  UNL1       -0.0003
     15 C         138.1339  140.5440  164.9545 C.ar    1  UNL1        0.0011
     16 C         138.4973  139.1069  165.1836 C.ar    1  UNL1        0.0137
     17 C         139.0530  138.2852  164.0584 C.ar    1  UNL1       -0.0031
     18 C         139.2452  138.9007  162.7041 C.ar    1  UNL1       -0.0218
     19 C         139.8008  138.0789  161.5789 C.3     1  UNL1        0.0310
     20 C         138.3051  138.4914  166.5380 C.2     1  UNL1        0.0729
     21 O         137.6116  137.1679  166.6687 O.co2   1  UNL1       -0.5446
     22 O         138.8064  139.1995  167.7616 O.co2   1  UNL1       -0.5446
     23 C         139.6198  144.2910  156.9002 C.3     1  UNL1        0.2525
     24 O         139.6507  142.7997  157.0576 O.3     1  UNL1       -0.4714
     25 N         146.1245  141.9348  156.7528 N.pl3   1  UNL1       -0.2725
     26 C         146.8138  141.2660  155.6006 C.3     1  UNL1        0.1306
     27 C         148.0643  142.0383  155.9005 C.3     1  UNL1        0.2003
     28 F         149.4359  142.1114  155.2978 F       1  UNL1       -0.2336
     29 C         147.3750  142.7071  157.0527 C.3     1  UNL1        0.1306
     30 C         142.2891  144.1253  159.4898 C.3     1  UNL1        0.1428
     31 N         141.6606  143.9127  160.8352 N.am    1  UNL1       -0.2380
     32 C         140.3598  144.4952  161.3025 C.2     1  UNL1        0.4055
     33 O         139.4590  145.3926  160.5068 O.2     1  UNL1       -0.2262
     34 O         140.1178  144.0228  162.7056 O.3     1  UNL1       -0.4320
     35 C         141.2692  143.1483  163.1052 C.3     1  UNL1        0.2107
     36 C         142.2227  143.0803  161.9492 C.3     1  UNL1        0.1233
     37 C         143.5119  142.3144  161.9135 C.3     1  UNL1        0.0258
     38 C         141.4376  142.4623  164.4284 C.ar    1  UNL1        0.0189
     39 C         142.0917  141.1142  164.4966 C.ar    1  UNL1        0.0031
     40 C         142.2600  140.4282  165.8198 C.ar    1  UNL1        0.0712
     41 C         141.7742  141.0903  167.0750 C.ar    1  UNL1        0.0077
     42 C         141.1200  142.4385  167.0070 C.ar    1  UNL1        0.0712
     43 C         140.9517  143.1244  165.6836 C.ar    1  UNL1        0.0031
     44 C         142.9142  139.0801  165.8878 C.3     1  UNL1        0.4186
     45 F         143.5683  137.7320  165.9559 F       1  UNL1       -0.1659
     46 F         141.6115  138.4694  166.3120 F       1  UNL1       -0.1659
     47 F         144.2170  139.6908  165.4636 F       1  UNL1       -0.1659
     48 C         140.6342  143.1006  168.2622 C.3     1  UNL1        0.4186
     49 F         140.1484  143.7627  169.5174 F       1  UNL1       -0.1659
     50 F         141.6478  142.3338  169.0589 F       1  UNL1       -0.1659
     51 F         139.6206  143.8673  167.4655 F       1  UNL1       -0.1659
@<TRIPOS>UNITY_ATOM_ATTR
21 1
charge -1
@<TRIPOS>BOND
     1    23    24    1
     2    24     7    1
     3     7     8   ar
     4     8     9   ar
     5     9    10   ar
     6    10    13    1
     7    13    14   ar
     8    14    15   ar
     9    15    16   ar
    10    16    20    1
    11    20    21   ar
    12    20    22   ar
    13    16    17   ar
    14    17    18   ar
    15    18    19    1
    16    10    11   ar
    17    11    12   ar
    18    12     1    1
    19     1     2   ar
    20     2     3   ar
    21     3     4   ar
    22     4    25    1
    23    25    26    1
    24    26    27    1
    25    27    28    1
    26    27    29    1
    27     4     5   ar
    28     5     6   ar
    29     6    30    1
    30    30    31    1
    31    31    32   am
    32    32    33    2
    33    32    34    1
    34    34    35    1
    35    35    38    1
    36    38    39   ar
    37    39    40   ar
    38    40    44    1
    39    44    45    1
    40    44    46    1
    41    44    47    1
    42    40    41   ar
    43    41    42   ar
    44    42    48    1
    45    48    49    1
    46    48    50    1
    47    48    51    1
    48    42    43   ar
    49    35    36    1
    50    36    37    1
    51    12     7   ar
    52     6     1   ar
    53    36    31    1
    54    18    13   ar
    55    29    25    1
    56    43    38   ar
