@<TRIPOS>MOLECULE
*****
 31 35 0 0 0
SMALL
GASTEIGER

@<TRIPOS>ATOM
      1 C         142.2850  138.0998  163.1863 C.3     1  UNL1        0.0730
      2 N         143.1482  139.2788  163.5251 N.3     1  UNL1       -0.2726
      3 C         144.5891  139.2267  163.9388 C.3     1  UNL1        0.0721
      4 C         145.0534  140.6326  164.1791 C.3     1  UNL1        0.0190
      5 C         143.8995  141.5536  163.9140 C.3     1  UNL1        0.0201
      6 C         144.6373  142.8224  164.2232 C.3     1  UNL1        0.0061
      7 C         143.1964  142.8745  163.8096 C.3     1  UNL1        0.0238
      8 C         142.7220  140.7169  163.5098 C.3     1  UNL1        0.0724
      9 C         141.9586  143.6672  163.5105 C.ar    1  UNL1       -0.0208
     10 C         141.7328  144.2136  162.1319 C.ar    1  UNL1        0.0072
     11 C         140.4950  145.0063  161.8328 C.ar    1  UNL1        0.0582
     12 CL        140.2691  145.5527  160.4542 Cl      1  UNL1       -0.0822
     13 C         139.4830  145.2526  162.9123 C.ar    1  UNL1        0.0228
     14 C         139.7089  144.7062  164.2908 C.ar    1  UNL1        0.0582
     15 CL        138.6968  144.9525  165.3702 Cl      1  UNL1       -0.0822
     16 C         140.9467  143.9135  164.5899 C.ar    1  UNL1        0.0072
     17 C         141.3735  137.5147  164.2240 C.3     1  UNL1        0.0294
     18 C         139.8926  137.7344  164.1313 C.3     1  UNL1        0.0666
     19 S         139.2923  139.0170  164.6260 S.3     1  UNL1       -0.0756
     20 C         139.4303  139.9825  168.3829 C.ar    1  UNL1        0.2029
     21 N         138.1736  139.1645  168.3398 N.ar    1  UNL1       -0.1250
     22 N         137.9690  138.7033  166.9272 N.ar    1  UNL1       -0.1220
     23 C         139.0992  139.2362  166.0973 C.ar    1  UNL1        0.1933
     24 N         140.0023  140.0268  166.9969 N.ar    1  UNL1       -0.2860
     25 C         141.2571  140.7370  166.5833 C.3     1  UNL1        0.1341
     26 C         142.2043  139.1363  169.8791 C.3     1  UNL1        0.0556
     27 C         141.2877  140.2516  170.2863 C.ar    1  UNL1        0.1001
     28 N         141.4852  141.1739  171.4527 N.ar    1  UNL1       -0.2085
     29 C         140.3322  142.1328  171.4858 C.ar    1  UNL1        0.2849
     30 O         139.4221  141.8032  170.3399 O.2     1  UNL1       -0.4283
     31 C         140.0126  140.6406  169.5986 C.ar    1  UNL1        0.1964
@<TRIPOS>BOND
     1    26    27    1
     2    27    28   ar
     3    28    29   ar
     4    29    30   ar
     5    30    31   ar
     6    31    20    1
     7    20    21   ar
     8    21    22   ar
     9    22    23   ar
    10    23    19    1
    11    19    18    1
    12    18    17    1
    13    17     1    1
    14     1     2    1
    15     2     3    1
    16     3     4    1
    17     5     4    1
    18     5     6    1
    19     6     7    1
    20     7     9    1
    21     9    10   ar
    22    10    11   ar
    23    11    12    1
    24    11    13   ar
    25    13    14   ar
    26    14    15    1
    27    14    16   ar
    28     5     8    1
    29    23    24   ar
    30    24    25    1
    31    31    27   ar
    32    24    20   ar
    33     8     2    1
    34     7     5    1
    35    16     9   ar
@<TRIPOS>MOLECULE
*****
 31 35 0 0 0
SMALL
GASTEIGER

@<TRIPOS>ATOM
      1 C         144.1055  139.5691  161.8542 C.3     1  UNL1        0.0730
      2 N         144.3552  140.7155  162.7888 N.3     1  UNL1       -0.2726
      3 C         145.5693  140.9030  163.6495 C.3     1  UNL1        0.0721
      4 C         145.3991  142.1791  164.4193 C.3     1  UNL1        0.0190
      5 C         144.0798  142.7802  164.0344 C.3     1  UNL1        0.0201
      6 C         144.1902  143.9832  164.9236 C.3     1  UNL1        0.0061
      7 C         142.9761  143.7957  164.0628 C.3     1  UNL1        0.0238
      8 C         143.4347  141.8757  163.0266 C.3     1  UNL1        0.0724
      9 C         141.6380  144.2737  163.5823 C.ar    1  UNL1       -0.0208
     10 C         141.4925  144.8256  162.1952 C.ar    1  UNL1        0.0072
     11 C         140.1544  145.3036  161.7146 C.ar    1  UNL1        0.0582
     12 CL        140.0090  145.8555  160.3275 Cl      1  UNL1       -0.0822
     13 C         138.9617  145.2297  162.6213 C.ar    1  UNL1        0.0228
     14 C         139.1072  144.6777  164.0085 C.ar    1  UNL1        0.0582
     15 CL        137.9144  144.6038  164.9151 Cl      1  UNL1       -0.0822
     16 C         140.4453  144.1997  164.4890 C.ar    1  UNL1        0.0072
     17 C         143.2940  138.3929  162.3101 C.3     1  UNL1        0.0294
     18 C         141.7972  138.4344  162.2209 C.3     1  UNL1        0.0666
     19 S         140.9667  137.6140  163.1627 S.3     1  UNL1       -0.0756
     20 C         139.4913  139.4125  166.2698 C.ar    1  UNL1        0.2029
     21 N         138.2647  139.2436  165.4230 N.ar    1  UNL1       -0.1250
     22 N         138.6681  138.5493  164.1561 N.ar    1  UNL1       -0.1220
     23 C         140.1440  138.2891  164.2198 C.ar    1  UNL1        0.1933
     24 N         140.6528  138.8226  165.5261 N.ar    1  UNL1       -0.2860
     25 C         142.0736  138.7747  166.0048 C.3     1  UNL1        0.1341
     26 C         141.1530  142.1135  167.0399 C.3     1  UNL1        0.0556
     27 C         140.3105  141.2996  167.9766 C.ar    1  UNL1        0.1001
     28 N         140.0838  141.5841  169.4318 N.ar    1  UNL1       -0.2085
     29 C         139.1799  140.5186  169.9773 C.ar    1  UNL1        0.2849
     30 O         138.8479  139.5754  168.8591 O.2     1  UNL1       -0.4283
     31 C         139.5467  140.0581  167.6227 C.ar    1  UNL1        0.1964
@<TRIPOS>BOND
     1    26    27    1
     2    27    28   ar
     3    28    29   ar
     4    29    30   ar
     5    30    31   ar
     6    31    20    1
     7    20    21   ar
     8    21    22   ar
     9    22    23   ar
    10    23    19    1
    11    19    18    1
    12    18    17    1
    13    17     1    1
    14     1     2    1
    15     2     3    1
    16     3     4    1
    17     5     4    1
    18     5     6    1
    19     6     7    1
    20     7     9    1
    21     9    10   ar
    22    10    11   ar
    23    11    12    1
    24    11    13   ar
    25    13    14   ar
    26    14    15    1
    27    14    16   ar
    28     5     8    1
    29    23    24   ar
    30    24    25    1
    31    31    27   ar
    32    24    20   ar
    33     8     2    1
    34     7     5    1
    35    16     9   ar
@<TRIPOS>MOLECULE
*****
 31 35 0 0 0
SMALL
GASTEIGER

@<TRIPOS>ATOM
      1 C         144.3052  144.2017  164.2662 C.3     1  UNL1        0.0730
      2 N         144.4675  142.7119  164.3316 N.3     1  UNL1       -0.2726
      3 C         145.5526  141.9135  163.6719 C.3     1  UNL1        0.0721
      4 C         145.3289  140.4672  164.0007 C.3     1  UNL1        0.0190
      5 C         144.1056  140.3717  164.8635 C.3     1  UNL1        0.0201
      6 C         144.1391  138.8801  165.0186 C.3     1  UNL1        0.0061
      7 C         143.0541  139.6786  165.6783 C.3     1  UNL1        0.0238
      8 C         143.5732  141.7591  165.0680 C.3     1  UNL1        0.0724
      9 C         141.8205  139.7394  166.5295 C.ar    1  UNL1       -0.0208
     10 C         140.4744  139.4845  165.9187 C.ar    1  UNL1        0.0072
     11 C         139.2409  139.5453  166.7699 C.ar    1  UNL1        0.0582
     12 CL        137.8948  139.2904  166.1591 Cl      1  UNL1       -0.0822
     13 C         139.3534  139.8610  168.2320 C.ar    1  UNL1        0.0228
     14 C         140.6995  140.1159  168.8428 C.ar    1  UNL1        0.0582
     15 CL        140.8120  140.4315  170.3049 Cl      1  UNL1       -0.0822
     16 C         141.9331  140.0551  167.9916 C.ar    1  UNL1        0.0072
     17 C         143.3168  144.8074  163.3143 C.3     1  UNL1        0.0294
     18 C         142.0331  145.3848  163.8327 C.3     1  UNL1        0.0666
     19 S         140.9259  144.4746  164.2750 S.3     1  UNL1       -0.0756
     20 C         138.6947  142.8304  161.5577 C.ar    1  UNL1        0.2029
     21 N         137.8050  143.9420  162.0298 N.ar    1  UNL1       -0.1250
     22 N         138.5325  144.6932  163.1051 N.ar    1  UNL1       -0.1220
     23 C         139.8719  144.0459  163.2977 C.ar    1  UNL1        0.1933
     24 N         139.9721  142.8947  162.3414 N.ar    1  UNL1       -0.2860
     25 C         141.1440  141.9700  162.1945 C.3     1  UNL1        0.1341
     26 C         137.8685  139.7105  162.0405 C.3     1  UNL1        0.0556
     27 C         137.9851  140.3962  160.7115 C.ar    1  UNL1        0.1001
     28 N         137.7425  139.7683  159.3710 N.ar    1  UNL1       -0.2085
     29 C         137.9722  140.8142  158.3207 C.ar    1  UNL1        0.2849
     30 O         138.3569  142.0886  159.0120 O.2     1  UNL1       -0.4283
     31 C         138.3649  141.8303  160.4896 C.ar    1  UNL1        0.1964
@<TRIPOS>BOND
     1    26    27    1
     2    27    28   ar
     3    28    29   ar
     4    29    30   ar
     5    30    31   ar
     6    31    20    1
     7    20    21   ar
     8    21    22   ar
     9    22    23   ar
    10    23    19    1
    11    19    18    1
    12    18    17    1
    13    17     1    1
    14     1     2    1
    15     2     3    1
    16     3     4    1
    17     5     4    1
    18     5     6    1
    19     6     7    1
    20     7     9    1
    21     9    10   ar
    22    10    11   ar
    23    11    12    1
    24    11    13   ar
    25    13    14   ar
    26    14    15    1
    27    14    16   ar
    28     5     8    1
    29    23    24   ar
    30    24    25    1
    31    31    27   ar
    32    24    20   ar
    33     8     2    1
    34     7     5    1
    35    16     9   ar
@<TRIPOS>MOLECULE
*****
 31 35 0 0 0
SMALL
GASTEIGER

@<TRIPOS>ATOM
      1 C         144.0547  139.2954  162.3494 C.3     1  UNL1        0.0730
      2 N         144.3118  140.5491  163.1318 N.3     1  UNL1       -0.2726
      3 C         145.5888  140.9037  163.8342 C.3     1  UNL1        0.0721
      4 C         145.4032  142.2420  164.4857 C.3     1  UNL1        0.0190
      5 C         144.0115  142.7145  164.1860 C.3     1  UNL1        0.0201
      6 C         144.1217  144.0107  164.9327 C.3     1  UNL1        0.0061
      7 C         142.8447  143.6561  164.2303 C.3     1  UNL1        0.0238
      8 C         143.3369  141.6682  163.3492 C.3     1  UNL1        0.0724
      9 C         141.4337  143.9950  163.8504 C.ar    1  UNL1       -0.0208
     10 C         141.1644  145.1109  162.8849 C.ar    1  UNL1        0.0072
     11 C         139.7534  145.4498  162.5050 C.ar    1  UNL1        0.0582
     12 CL        139.4841  146.5657  161.5395 Cl      1  UNL1       -0.0822
     13 C         138.6118  144.6727  163.0905 C.ar    1  UNL1        0.0228
     14 C         138.8812  143.5568  164.0561 C.ar    1  UNL1        0.0582
     15 CL        137.7395  142.7797  164.6416 Cl      1  UNL1       -0.0822
     16 C         140.2921  143.2179  164.4360 C.ar    1  UNL1        0.0072
     17 C         142.6464  138.8472  162.0925 C.3     1  UNL1        0.0294
     18 C         141.9183  138.0345  163.1218 C.3     1  UNL1        0.0666
     19 S         141.0958  138.7187  164.1731 S.3     1  UNL1       -0.0756
     20 C         141.8964  139.6043  167.8664 C.ar    1  UNL1        0.2029
     21 N         143.1800  138.9563  167.4389 N.ar    1  UNL1       -0.1250
     22 N         143.0363  138.5458  166.0033 N.ar    1  UNL1       -0.1220
     23 C         141.6639  138.9399  165.5436 C.ar    1  UNL1        0.1933
     24 N         140.9594  139.5941  166.6950 N.ar    1  UNL1       -0.2860
     25 C         139.5631  140.1419  166.6781 C.3     1  UNL1        0.1341
     26 C         143.3841  142.1557  169.2543 C.3     1  UNL1        0.0556
     27 C         142.2854  141.3368  169.8644 C.ar    1  UNL1        0.1001
     28 N         141.6777  141.5468  171.2196 N.ar    1  UNL1       -0.2085
     29 C         140.6182  140.5039  171.4192 C.ar    1  UNL1        0.2849
     30 O         140.5712  139.6492  170.1874 O.2     1  UNL1       -0.4283
     31 C         141.6016  140.1640  169.2265 C.ar    1  UNL1        0.1964
@<TRIPOS>BOND
     1    26    27    1
     2    27    28   ar
     3    28    29   ar
     4    29    30   ar
     5    30    31   ar
     6    31    20    1
     7    20    21   ar
     8    21    22   ar
     9    22    23   ar
    10    23    19    1
    11    19    18    1
    12    18    17    1
    13    17     1    1
    14     1     2    1
    15     2     3    1
    16     3     4    1
    17     5     4    1
    18     5     6    1
    19     6     7    1
    20     7     9    1
    21     9    10   ar
    22    10    11   ar
    23    11    12    1
    24    11    13   ar
    25    13    14   ar
    26    14    15    1
    27    14    16   ar
    28     5     8    1
    29    23    24   ar
    30    24    25    1
    31    31    27   ar
    32    24    20   ar
    33     8     2    1
    34     7     5    1
    35    16     9   ar
@<TRIPOS>MOLECULE
*****
 31 35 0 0 0
SMALL
GASTEIGER

@<TRIPOS>ATOM
      1 C         143.8173  139.1190  163.5406 C.3     1  UNL1        0.0730
      2 N         142.4012  139.0462  164.0297 N.3     1  UNL1       -0.2726
      3 C         141.2407  138.4551  163.2855 C.3     1  UNL1        0.0721
      4 C         140.0192  138.5953  164.1448 C.3     1  UNL1        0.0190
      5 C         140.4248  139.2729  165.4200 C.3     1  UNL1        0.0201
      6 C         139.0589  139.2714  166.0398 C.3     1  UNL1        0.0061
      7 C         140.2194  139.8624  166.7840 C.3     1  UNL1        0.0238
      8 C         141.8970  139.5516  165.3489 C.3     1  UNL1        0.0724
      9 C         140.7708  140.5439  168.0011 C.ar    1  UNL1       -0.0208
     10 C         141.7502  139.8274  168.8830 C.ar    1  UNL1        0.0072
     11 C         142.3016  140.5090  170.1001 C.ar    1  UNL1        0.0582
     12 CL        143.2809  139.7925  170.9819 Cl      1  UNL1       -0.0822
     13 C         141.8737  141.9070  170.4353 C.ar    1  UNL1        0.0228
     14 C         140.8944  142.6235  169.5535 C.ar    1  UNL1        0.0582
     15 CL        140.4666  144.0216  169.8889 Cl      1  UNL1       -0.0822
     16 C         140.3430  141.9420  168.3364 C.ar    1  UNL1        0.0072
     17 C         144.8493  139.8595  164.3385 C.3     1  UNL1        0.0294
     18 C         145.5913  141.0085  163.7226 C.3     1  UNL1        0.0666
     19 S         145.0763  142.4078  163.8860 S.3     1  UNL1       -0.0756
     20 C         141.2221  142.8669  163.8755 C.ar    1  UNL1        0.2029
     21 N         141.5434  143.1464  165.3138 N.ar    1  UNL1       -0.1250
     22 N         143.0263  143.0084  165.4928 N.ar    1  UNL1       -0.1220
     23 C         143.6215  142.6437  164.1651 C.ar    1  UNL1        0.1933
     24 N         142.5065  142.5562  163.1655 N.ar    1  UNL1       -0.2860
     25 C         142.6505  142.2176  161.7114 C.3     1  UNL1        0.1341
     26 C         139.9279  145.3441  162.1908 C.3     1  UNL1        0.0556
     27 C         139.2614  144.0322  162.4816 C.ar    1  UNL1        0.1001
     28 N         137.8831  143.6284  162.0490 N.ar    1  UNL1       -0.2085
     29 C         137.6261  142.2403  162.5560 C.ar    1  UNL1        0.2849
     30 O         138.8456  141.7861  163.3019 O.2     1  UNL1       -0.4283
     31 C         139.8563  142.8935  163.2559 C.ar    1  UNL1        0.1964
@<TRIPOS>BOND
     1    26    27    1
     2    27    28   ar
     3    28    29   ar
     4    29    30   ar
     5    30    31   ar
     6    31    20    1
     7    20    21   ar
     8    21    22   ar
     9    22    23   ar
    10    23    19    1
    11    19    18    1
    12    18    17    1
    13    17     1    1
    14     1     2    1
    15     2     3    1
    16     3     4    1
    17     5     4    1
    18     5     6    1
    19     6     7    1
    20     7     9    1
    21     9    10   ar
    22    10    11   ar
    23    11    12    1
    24    11    13   ar
    25    13    14   ar
    26    14    15    1
    27    14    16   ar
    28     5     8    1
    29    23    24   ar
    30    24    25    1
    31    31    27   ar
    32    24    20   ar
    33     8     2    1
    34     7     5    1
    35    16     9   ar
@<TRIPOS>MOLECULE
*****
 31 35 0 0 0
SMALL
GASTEIGER

@<TRIPOS>ATOM
      1 C         142.5904  138.2875  163.6550 C.3     1  UNL1        0.0730
      2 N         141.2497  138.4070  164.3172 N.3     1  UNL1       -0.2726
      3 C         139.9550  137.8618  163.7915 C.3     1  UNL1        0.0721
      4 C         138.8736  138.2107  164.7707 C.3     1  UNL1        0.0190
      5 C         139.5000  138.9715  165.9015 C.3     1  UNL1        0.0201
      6 C         138.2322  139.1699  166.6783 C.3     1  UNL1        0.0061
      7 C         139.5270  139.7152  167.2039 C.3     1  UNL1        0.0238
      8 C         140.9686  139.0929  165.6212 C.3     1  UNL1        0.0724
      9 C         140.2901  140.4593  168.2593 C.ar    1  UNL1       -0.0208
     10 C         139.9952  141.9072  168.5176 C.ar    1  UNL1        0.0072
     11 C         140.7583  142.6514  169.5730 C.ar    1  UNL1        0.0582
     12 CL        140.4635  144.0993  169.8313 Cl      1  UNL1       -0.0822
     13 C         141.8163  141.9476  170.3701 C.ar    1  UNL1        0.0228
     14 C         142.1111  140.4997  170.1119 C.ar    1  UNL1        0.0582
     15 CL        143.1691  139.7960  170.9091 Cl      1  UNL1       -0.0822
     16 C         141.3480  139.7556  169.0565 C.ar    1  UNL1        0.0072
     17 C         143.8119  138.8373  164.3299 C.3     1  UNL1        0.0294
     18 C         144.4131  140.1279  163.8576 C.3     1  UNL1        0.0666
     19 S         144.0405  141.4179  164.5261 S.3     1  UNL1       -0.0756
     20 C         142.6393  144.1417  162.1422 C.ar    1  UNL1        0.2029
     21 N         143.8423  144.8394  162.7043 N.ar    1  UNL1       -0.1250
     22 N         144.5136  143.9040  163.6657 N.ar    1  UNL1       -0.1220
     23 C         143.7255  142.6281  163.6978 C.ar    1  UNL1        0.1933
     24 N         142.5671  142.7750  162.7563 N.ar    1  UNL1       -0.2860
     25 C         141.5203  141.7374  162.4776 C.3     1  UNL1        0.1341
     26 C         139.6498  145.2799  162.7879 C.3     1  UNL1        0.0556
     27 C         140.3033  145.2339  161.4385 C.ar    1  UNL1        0.1001
     28 N         139.6974  145.7030  160.1490 N.ar    1  UNL1       -0.2085
     29 C         140.6971  145.4698  159.0552 C.ar    1  UNL1        0.2849
     30 O         141.9208  144.8565  159.6688 O.2     1  UNL1       -0.4283
     31 C         141.6774  144.7107  161.1417 C.ar    1  UNL1        0.1964
@<TRIPOS>BOND
     1    26    27    1
     2    27    28   ar
     3    28    29   ar
     4    29    30   ar
     5    30    31   ar
     6    31    20    1
     7    20    21   ar
     8    21    22   ar
     9    22    23   ar
    10    23    19    1
    11    19    18    1
    12    18    17    1
    13    17     1    1
    14     1     2    1
    15     2     3    1
    16     3     4    1
    17     5     4    1
    18     5     6    1
    19     6     7    1
    20     7     9    1
    21     9    10   ar
    22    10    11   ar
    23    11    12    1
    24    11    13   ar
    25    13    14   ar
    26    14    15    1
    27    14    16   ar
    28     5     8    1
    29    23    24   ar
    30    24    25    1
    31    31    27   ar
    32    24    20   ar
    33     8     2    1
    34     7     5    1
    35    16     9   ar
@<TRIPOS>MOLECULE
*****
 31 35 0 0 0
SMALL
GASTEIGER

@<TRIPOS>ATOM
      1 C         144.7746  143.3427  163.8253 C.3     1  UNL1        0.0730
      2 N         144.3750  141.9364  164.1612 N.3     1  UNL1       -0.2726
      3 C         144.6631  140.7171  163.3366 C.3     1  UNL1        0.0721
      4 C         144.0832  139.5298  164.0466 C.3     1  UNL1        0.0190
      5 C         143.4367  140.0154  165.3100 C.3     1  UNL1        0.0201
      6 C         142.9716  138.6677  165.7762 C.3     1  UNL1        0.0061
      7 C         142.6834  139.8871  166.6008 C.3     1  UNL1        0.0238
      8 C         143.6170  141.5028  165.3809 C.3     1  UNL1        0.0724
      9 C         142.0822  140.5170  167.8221 C.ar    1  UNL1       -0.0208
     10 C         140.7128  140.1097  168.2792 C.ar    1  UNL1        0.0072
     11 C         140.1116  140.7397  169.5006 C.ar    1  UNL1        0.0582
     12 CL        138.7422  140.3324  169.9577 Cl      1  UNL1       -0.0822
     13 C         140.8798  141.7769  170.2648 C.ar    1  UNL1        0.0228
     14 C         142.2492  142.1841  169.8077 C.ar    1  UNL1        0.0582
     15 CL        143.0173  143.2214  170.5721 Cl      1  UNL1       -0.0822
     16 C         142.8504  141.5542  168.5864 C.ar    1  UNL1        0.0072
     17 C         143.8404  144.2227  163.0489 C.3     1  UNL1        0.0294
     18 C         142.8340  145.0693  163.7704 C.3     1  UNL1        0.0666
     19 S         141.3678  144.8118  163.5866 S.3     1  UNL1       -0.0756
     20 C         140.0165  141.2603  164.3782 C.ar    1  UNL1        0.2029
     21 N         139.5869  142.0135  165.6023 N.ar    1  UNL1       -0.1250
     22 N         140.0408  143.4355  165.4547 N.ar    1  UNL1       -0.1220
     23 C         140.7509  143.5613  164.1395 C.ar    1  UNL1        0.1933
     24 N         140.7360  142.2170  163.4741 N.ar    1  UNL1       -0.2860
     25 C         141.3352  141.8872  162.1392 C.3     1  UNL1        0.1341
     26 C         138.0335  139.3007  166.0744 C.3     1  UNL1        0.0556
     27 C         138.8585  138.9052  164.8857 C.ar    1  UNL1        0.1001
     28 N         138.9169  137.5396  164.2679 N.ar    1  UNL1       -0.2085
     29 C         139.8644  137.5963  163.1065 C.ar    1  UNL1        0.2849
     30 O         140.3917  138.9970  163.0064 O.2     1  UNL1       -0.4283
     31 C         139.7700  139.8060  164.1061 C.ar    1  UNL1        0.1964
@<TRIPOS>BOND
     1    26    27    1
     2    27    28   ar
     3    28    29   ar
     4    29    30   ar
     5    30    31   ar
     6    31    20    1
     7    20    21   ar
     8    21    22   ar
     9    22    23   ar
    10    23    19    1
    11    19    18    1
    12    18    17    1
    13    17     1    1
    14     1     2    1
    15     2     3    1
    16     3     4    1
    17     5     4    1
    18     5     6    1
    19     6     7    1
    20     7     9    1
    21     9    10   ar
    22    10    11   ar
    23    11    12    1
    24    11    13   ar
    25    13    14   ar
    26    14    15    1
    27    14    16   ar
    28     5     8    1
    29    23    24   ar
    30    24    25    1
    31    31    27   ar
    32    24    20   ar
    33     8     2    1
    34     7     5    1
    35    16     9   ar
@<TRIPOS>MOLECULE
*****
 31 35 0 0 0
SMALL
GASTEIGER

@<TRIPOS>ATOM
      1 C         142.7725  144.2024  161.8722 C.3     1  UNL1        0.0730
      2 N         141.3184  144.3028  162.2265 N.3     1  UNL1       -0.2726
      3 C         140.4629  145.5284  162.1007 C.3     1  UNL1        0.0721
      4 C         139.0803  145.1782  162.5653 C.3     1  UNL1        0.0190
      5 C         139.0814  143.7362  162.9783 C.3     1  UNL1        0.0201
      6 C         137.6354  143.6853  163.3739 C.3     1  UNL1        0.0061
      7 C         138.4910  142.4597  163.4998 C.3     1  UNL1        0.0238
      8 C         140.4647  143.1951  162.7689 C.3     1  UNL1        0.0724
      9 C         138.6441  141.0151  163.8734 C.ar    1  UNL1       -0.0208
     10 C         138.2050  140.5398  165.2267 C.ar    1  UNL1        0.0072
     11 C         138.3581  139.0952  165.6004 C.ar    1  UNL1        0.0582
     12 CL        137.9190  138.6200  166.9537 Cl      1  UNL1       -0.0822
     13 C         138.9502  138.1259  164.6208 C.ar    1  UNL1        0.0228
     14 C         139.3893  138.6011  163.2675 C.ar    1  UNL1        0.0582
     15 CL        139.9815  137.6316  162.2880 Cl      1  UNL1       -0.0822
     16 C         139.2362  140.0457  162.8938 C.ar    1  UNL1        0.0072
     17 C         143.7724  143.7988  162.9149 C.3     1  UNL1        0.0294
     18 C         144.7772  142.7261  162.6152 C.3     1  UNL1        0.0666
     19 S         145.1149  141.7023  163.6582 S.3     1  UNL1       -0.0756
     20 C         142.3630  140.5485  166.1405 C.ar    1  UNL1        0.2029
     21 N         142.3051  139.4553  165.1149 N.ar    1  UNL1       -0.1250
     22 N         143.3289  139.7545  164.0602 N.ar    1  UNL1       -0.1220
     23 C         144.0196  141.0325  164.4339 C.ar    1  UNL1        0.1933
     24 N         143.4226  141.5233  165.7196 N.ar    1  UNL1       -0.2860
     25 C         143.8161  142.7699  166.4552 C.3     1  UNL1        0.1341
     26 C         140.2529  142.9429  166.8217 C.3     1  UNL1        0.0556
     27 C         140.5410  141.7497  167.6840 C.ar    1  UNL1        0.1001
     28 N         139.9098  141.4477  169.0107 N.ar    1  UNL1       -0.2085
     29 C         140.4895  140.1604  169.5176 C.ar    1  UNL1        0.2849
     30 O         141.4791  139.6669  168.5040 O.2     1  UNL1       -0.4283
     31 C         141.5109  140.6492  167.3708 C.ar    1  UNL1        0.1964
@<TRIPOS>BOND
     1    26    27    1
     2    27    28   ar
     3    28    29   ar
     4    29    30   ar
     5    30    31   ar
     6    31    20    1
     7    20    21   ar
     8    21    22   ar
     9    22    23   ar
    10    23    19    1
    11    19    18    1
    12    18    17    1
    13    17     1    1
    14     1     2    1
    15     2     3    1
    16     3     4    1
    17     5     4    1
    18     5     6    1
    19     6     7    1
    20     7     9    1
    21     9    10   ar
    22    10    11   ar
    23    11    12    1
    24    11    13   ar
    25    13    14   ar
    26    14    15    1
    27    14    16   ar
    28     5     8    1
    29    23    24   ar
    30    24    25    1
    31    31    27   ar
    32    24    20   ar
    33     8     2    1
    34     7     5    1
    35    16     9   ar
@<TRIPOS>MOLECULE
*****
 31 35 0 0 0
SMALL
GASTEIGER

@<TRIPOS>ATOM
      1 C         144.4271  143.0123  163.5995 C.3     1  UNL1        0.0730
      2 N         144.2467  141.6208  164.1297 N.3     1  UNL1       -0.2726
      3 C         144.7214  140.3586  163.4728 C.3     1  UNL1        0.0721
      4 C         144.3280  139.2049  164.3471 C.3     1  UNL1        0.0190
      5 C         143.6103  139.7541  165.5443 C.3     1  UNL1        0.0201
      6 C         143.3558  138.4277  166.1967 C.3     1  UNL1        0.0061
      7 C         142.8812  139.6899  166.8536 C.3     1  UNL1        0.0238
      8 C         143.5601  141.2472  165.4099 C.3     1  UNL1        0.0724
      9 C         142.1863  140.3816  167.9888 C.ar    1  UNL1       -0.0208
     10 C         140.7901  139.9844  168.3671 C.ar    1  UNL1        0.0072
     11 C         140.0952  140.6761  169.5023 C.ar    1  UNL1        0.0582
     12 CL        138.6991  140.2790  169.8806 Cl      1  UNL1       -0.0822
     13 C         140.7964  141.7649  170.2591 C.ar    1  UNL1        0.0228
     14 C         142.1926  142.1620  169.8808 C.ar    1  UNL1        0.0582
     15 CL        142.8937  143.2508  170.6377 Cl      1  UNL1       -0.0822
     16 C         142.8875  141.4704  168.7456 C.ar    1  UNL1        0.0072
     17 C         143.7803  144.1711  164.2987 C.3     1  UNL1        0.0294
     18 C         142.8765  145.0961  163.5387 C.3     1  UNL1        0.0666
     19 S         141.8665  144.5381  162.5803 S.3     1  UNL1       -0.0756
     20 C         140.3712  141.1021  163.5922 C.ar    1  UNL1        0.2029
     21 N         141.0147  140.7633  162.2803 N.ar    1  UNL1       -0.1250
     22 N         141.6531  142.0091  161.7415 N.ar    1  UNL1       -0.1220
     23 C         141.4043  143.1180  162.7205 C.ar    1  UNL1        0.1933
     24 N         140.6121  142.5575  163.8643 N.ar    1  UNL1       -0.2860
     25 C         140.1430  143.3187  165.0687 C.3     1  UNL1        0.1341
     26 C         140.8193  137.8740  163.7602 C.3     1  UNL1        0.0556
     27 C         139.8251  138.6687  164.5540 C.ar    1  UNL1        0.1001
     28 N         138.8622  138.1191  165.5643 N.ar    1  UNL1       -0.2085
     29 C         138.0611  139.2631  166.1115 C.ar    1  UNL1        0.2849
     30 O         138.5289  140.5199  165.4394 O.2     1  UNL1       -0.4283
     31 C         139.6191  140.1524  164.4768 C.ar    1  UNL1        0.1964
@<TRIPOS>BOND
     1    26    27    1
     2    27    28   ar
     3    28    29   ar
     4    29    30   ar
     5    30    31   ar
     6    31    20    1
     7    20    21   ar
     8    21    22   ar
     9    22    23   ar
    10    23    19    1
    11    19    18    1
    12    18    17    1
    13    17     1    1
    14     1     2    1
    15     2     3    1
    16     3     4    1
    17     5     4    1
    18     5     6    1
    19     6     7    1
    20     7     9    1
    21     9    10   ar
    22    10    11   ar
    23    11    12    1
    24    11    13   ar
    25    13    14   ar
    26    14    15    1
    27    14    16   ar
    28     5     8    1
    29    23    24   ar
    30    24    25    1
    31    31    27   ar
    32    24    20   ar
    33     8     2    1
    34     7     5    1
    35    16     9   ar
