@<TRIPOS>MOLECULE
*****
 27 30 0 0 0
SMALL
GASTEIGER

@<TRIPOS>ATOM
      1 C         138.8608  139.7040  168.2618 C.2     1  UNL1        0.1571
      2 N         138.2579  139.9579  169.6116 N.2     1  UNL1       -0.1436
      3 N         139.1368  140.9343  170.3356 N.2     1  UNL1       -0.1519
      4 C         140.2829  141.2840  169.4332 C.2     1  UNL1        0.0865
      5 C         141.4597  142.1964  169.6130 C.3     1  UNL1        0.0736
      6 C         142.4660  142.3485  168.5111 C.2     1  UNL1       -0.0196
      7 C         142.2954  141.5881  167.2294 C.2     1  UNL1       -0.0016
      8 C         141.1186  140.6756  167.0496 C.2     1  UNL1        0.0027
      9 C         140.1123  140.5236  168.1515 C.2     1  UNL1        0.0395
     10 C         143.3018  141.7403  166.1275 C.ar    1  UNL1        0.0294
     11 C         143.8392  143.0981  165.7847 C.ar    1  UNL1        0.0024
     12 C         144.8456  143.2502  164.6828 C.ar    1  UNL1        0.0025
     13 C         145.3145  142.0445  163.9236 C.ar    1  UNL1        0.0320
     14 C         144.7770  140.6866  164.2664 C.ar    1  UNL1        0.1674
     15 F         145.2459  139.4809  163.5072 F       1  UNL1       -0.2018
     16 C         143.7707  140.5345  165.3683 C.ar    1  UNL1        0.1673
     17 F         143.2332  139.1767  165.7110 F       1  UNL1       -0.2018
     18 O         137.0007  138.0922  167.4300 O.2     1  UNL1       -0.2684
     19 C         138.3092  138.7909  167.2073 C.2     1  UNL1        0.2654
     20 N         139.0660  138.5765  165.9301 N.am    1  UNL1       -0.2995
     21 H         139.9248  139.0351  165.7839 H       1  UNL1        0.1498
     22 C         138.5143  137.6634  164.8756 C.3     1  UNL1        0.0923
     23 C         139.0297  137.7441  163.4693 C.3     1  UNL1        0.0517
     24 C         138.2361  138.1444  162.2610 C.3     1  UNL1        0.0363
     25 C         139.1451  138.0864  161.0692 C.3     1  UNL1        0.1423
     26 O         140.5007  137.6502  161.5410 O.3     1  UNL1       -0.3537
     27 C         140.4292  137.4387  163.0243 C.3     1  UNL1        0.1439
@<TRIPOS>BOND
     1    18    19    2
     2    19    20   am
     3    20    22    1
     4    22    23    1
     5    23    24    1
     6    24    25    1
     7    25    26    1
     8    26    27    1
     9    19     1    1
    10     1     2    2
    11     2     3    1
    12     3     4    2
    13     4     5    1
    14     5     6    1
    15     6     7    2
    16     7    10    1
    17    10    11   ar
    18    11    12   ar
    19    12    13   ar
    20    13    14   ar
    21    14    15    1
    22    14    16   ar
    23    16    17    1
    24     7     8    1
    25     8     9    2
    26    27    23    1
    27     9     1    1
    28     9     4    1
    29    16    10   ar
    30    20    21    1
@<TRIPOS>MOLECULE
*****
 27 30 0 0 0
SMALL
GASTEIGER

@<TRIPOS>ATOM
      1 C         142.2541  140.3932  170.3509 C.2     1  UNL1        0.1571
      2 N         142.1960  140.9709  171.7340 N.2     1  UNL1       -0.1436
      3 N         141.4681  142.2803  171.6591 N.2     1  UNL1       -0.1519
      4 C         141.0763  142.5119  170.2298 C.2     1  UNL1        0.0865
      5 C         140.3400  143.6340  169.5601 C.3     1  UNL1        0.0736
      6 C         140.0895  143.5898  168.0819 C.2     1  UNL1       -0.0196
      7 C         140.5753  142.4235  167.2734 C.2     1  UNL1       -0.0016
      8 C         141.3116  141.3014  167.9431 C.2     1  UNL1        0.0027
      9 C         141.5621  141.3456  169.4213 C.2     1  UNL1        0.0395
     10 C         140.3247  142.3794  165.7950 C.ar    1  UNL1        0.0294
     11 C         140.9974  143.3690  164.8905 C.ar    1  UNL1        0.0024
     12 C         140.7468  143.3249  163.4122 C.ar    1  UNL1        0.0025
     13 C         139.8236  142.2912  162.8385 C.ar    1  UNL1        0.0320
     14 C         139.1510  141.3015  163.7431 C.ar    1  UNL1        0.1674
     15 F         138.2278  140.2678  163.1694 F       1  UNL1       -0.2018
     16 C         139.4015  141.3457  165.2213 C.ar    1  UNL1        0.1673
     17 F         138.7289  140.3561  166.1260 F       1  UNL1       -0.2018
     18 O         143.0280  138.7229  168.5177 O.2     1  UNL1       -0.2684
     19 C         142.8922  139.0917  169.9652 C.2     1  UNL1        0.2654
     20 N         143.3946  138.1588  171.0271 N.am    1  UNL1       -0.2995
     21 H         143.3055  138.4009  171.9772 H       1  UNL1        0.1498
     22 C         144.0327  136.8573  170.6413 C.3     1  UNL1        0.0923
     23 C         144.9897  136.1841  171.5798 C.3     1  UNL1        0.0517
     24 C         146.1462  136.8364  172.2776 C.3     1  UNL1        0.0363
     25 C         146.8296  135.7958  173.1144 C.3     1  UNL1        0.1423
     26 O         146.0953  134.5002  172.9337 O.3     1  UNL1       -0.3537
     27 C         144.9583  134.7403  171.9853 C.3     1  UNL1        0.1439
@<TRIPOS>BOND
     1    18    19    2
     2    19    20   am
     3    20    22    1
     4    22    23    1
     5    23    24    1
     6    24    25    1
     7    25    26    1
     8    26    27    1
     9    19     1    1
    10     1     2    2
    11     2     3    1
    12     3     4    2
    13     4     5    1
    14     5     6    1
    15     6     7    2
    16     7    10    1
    17    10    11   ar
    18    11    12   ar
    19    12    13   ar
    20    13    14   ar
    21    14    15    1
    22    14    16   ar
    23    16    17    1
    24     7     8    1
    25     8     9    2
    26    27    23    1
    27     9     1    1
    28     9     4    1
    29    16    10   ar
    30    20    21    1
@<TRIPOS>MOLECULE
*****
 27 30 0 0 0
SMALL
GASTEIGER

@<TRIPOS>ATOM
      1 C         143.7702  141.5134  163.6800 C.2     1  UNL1        0.1571
      2 N         144.4922  140.5650  162.7694 N.2     1  UNL1       -0.1436
      3 N         144.6192  139.2488  163.4775 N.2     1  UNL1       -0.1519
      4 C         143.9757  139.3838  164.8258 C.2     1  UNL1        0.0865
      5 C         143.7998  138.4131  165.9557 C.3     1  UNL1        0.0736
      6 C         143.0991  138.8420  167.2107 C.2     1  UNL1       -0.0196
      7 C         142.5744  140.2417  167.3358 C.2     1  UNL1       -0.0016
      8 C         142.7503  141.2124  166.2059 C.2     1  UNL1        0.0027
      9 C         143.4510  140.7834  164.9509 C.2     1  UNL1        0.0395
     10 C         141.8737  140.6706  168.5909 C.ar    1  UNL1        0.0294
     11 C         142.6324  141.3944  169.6634 C.ar    1  UNL1        0.0024
     12 C         141.9317  141.8233  170.9185 C.ar    1  UNL1        0.0025
     13 C         140.4724  141.5284  171.1009 C.ar    1  UNL1        0.0320
     14 C         139.7137  140.8045  170.0283 C.ar    1  UNL1        0.1674
     15 F         138.2543  140.5096  170.2107 F       1  UNL1       -0.2018
     16 C         140.4144  140.3757  168.7733 C.ar    1  UNL1        0.1673
     17 F         139.6557  139.6518  167.7006 F       1  UNL1       -0.2018
     18 O         144.4470  143.8367  162.7343 O.2     1  UNL1       -0.2684
     19 C         143.4275  142.9413  163.3735 C.2     1  UNL1        0.2654
     20 N         142.0651  143.4737  163.7062 N.am    1  UNL1       -0.2995
     21 H         141.3959  142.8860  164.1257 H       1  UNL1        0.1498
     22 C         141.7225  144.9015  163.3997 C.3     1  UNL1        0.0923
     23 C         141.0225  145.2463  162.1187 C.3     1  UNL1        0.0517
     24 C         141.3588  144.7110  160.7584 C.3     1  UNL1        0.0363
     25 C         140.4074  145.3209  159.7720 C.3     1  UNL1        0.1423
     26 O         139.4831  146.2333  160.5227 O.3     1  UNL1       -0.3537
     27 C         139.8634  146.1871  161.9730 C.3     1  UNL1        0.1439
@<TRIPOS>BOND
     1    18    19    2
     2    19    20   am
     3    20    22    1
     4    22    23    1
     5    23    24    1
     6    24    25    1
     7    25    26    1
     8    26    27    1
     9    19     1    1
    10     1     2    2
    11     2     3    1
    12     3     4    2
    13     4     5    1
    14     5     6    1
    15     6     7    2
    16     7    10    1
    17    10    11   ar
    18    11    12   ar
    19    12    13   ar
    20    13    14   ar
    21    14    15    1
    22    14    16   ar
    23    16    17    1
    24     7     8    1
    25     8     9    2
    26    27    23    1
    27     9     1    1
    28     9     4    1
    29    16    10   ar
    30    20    21    1
@<TRIPOS>MOLECULE
*****
 27 30 0 0 0
SMALL
GASTEIGER

@<TRIPOS>ATOM
      1 C         139.3900  139.8619  167.8846 C.2     1  UNL1        0.1571
      2 N         138.9715  140.0949  169.3061 N.2     1  UNL1       -0.1436
      3 N         139.9805  141.0039  169.9432 N.2     1  UNL1       -0.1519
      4 C         141.0225  141.3326  168.9154 C.2     1  UNL1        0.0865
      5 C         142.2564  142.1834  168.9737 C.3     1  UNL1        0.0736
      6 C         143.1254  142.3284  167.7598 C.2     1  UNL1       -0.0196
      7 C         142.7605  141.6226  166.4875 C.2     1  UNL1       -0.0016
      8 C         141.5265  140.7718  166.4292 C.2     1  UNL1        0.0027
      9 C         140.6575  140.6268  167.6432 C.2     1  UNL1        0.0395
     10 C         143.6296  141.7676  165.2735 C.ar    1  UNL1        0.0294
     11 C         144.4593  140.6102  164.8025 C.ar    1  UNL1        0.0024
     12 C         145.3284  140.7552  163.5885 C.ar    1  UNL1        0.0025
     13 C         145.3677  142.0577  162.8456 C.ar    1  UNL1        0.0320
     14 C         144.5379  143.2152  163.3166 C.ar    1  UNL1        0.1674
     15 F         144.5771  144.5177  162.5736 F       1  UNL1       -0.2018
     16 C         143.6688  143.0701  164.5306 C.ar    1  UNL1        0.1673
     17 F         142.8390  144.2276  165.0016 F       1  UNL1       -0.2018
     18 O         137.3221  138.4396  167.2131 O.2     1  UNL1       -0.2684
     19 C         138.6678  139.0129  166.8808 C.2     1  UNL1        0.2654
     20 N         139.2912  138.7373  165.5446 N.am    1  UNL1       -0.2995
     21 H         140.1744  139.1136  165.3264 H       1  UNL1        0.1498
     22 C         138.5690  137.8884  164.5407 C.3     1  UNL1        0.0923
     23 C         138.9954  137.9010  163.1027 C.3     1  UNL1        0.0517
     24 C         138.1166  138.2027  161.9251 C.3     1  UNL1        0.0363
     25 C         138.9536  138.1022  160.6843 C.3     1  UNL1        0.1423
     26 O         140.3497  137.7384  161.0952 O.3     1  UNL1       -0.3537
     27 C         140.3754  137.6141  162.5898 C.3     1  UNL1        0.1439
@<TRIPOS>BOND
     1    18    19    2
     2    19    20   am
     3    20    22    1
     4    22    23    1
     5    23    24    1
     6    24    25    1
     7    25    26    1
     8    26    27    1
     9    19     1    1
    10     1     2    2
    11     2     3    1
    12     3     4    2
    13     4     5    1
    14     5     6    1
    15     6     7    2
    16     7    10    1
    17    10    11   ar
    18    11    12   ar
    19    12    13   ar
    20    13    14   ar
    21    14    15    1
    22    14    16   ar
    23    16    17    1
    24     7     8    1
    25     8     9    2
    26    27    23    1
    27     9     1    1
    28     9     4    1
    29    16    10   ar
    30    20    21    1
@<TRIPOS>MOLECULE
*****
 27 30 0 0 0
SMALL
GASTEIGER

@<TRIPOS>ATOM
      1 C         141.6444  141.5962  169.0027 C.2     1  UNL1        0.1571
      2 N         141.3743  141.6265  170.4778 N.2     1  UNL1       -0.1436
      3 N         140.0981  140.8800  170.7308 N.2     1  UNL1       -0.1519
      4 C         139.5795  140.3882  169.4120 C.2     1  UNL1        0.0865
      5 C         138.3606  139.5946  169.0457 C.3     1  UNL1        0.0736
      6 C         138.0973  139.2436  167.6113 C.2     1  UNL1       -0.0196
      7 C         139.0529  139.6863  166.5432 C.2     1  UNL1       -0.0016
      8 C         140.2719  140.4800  166.9095 C.2     1  UNL1        0.0027
      9 C         140.5352  140.8309  168.3439 C.2     1  UNL1        0.0395
     10 C         138.7896  139.3353  165.1088 C.ar    1  UNL1        0.0294
     11 C         139.1520  137.9751  164.5908 C.ar    1  UNL1        0.0024
     12 C         138.8886  137.6241  163.1564 C.ar    1  UNL1        0.0025
     13 C         138.2629  138.6334  162.2400 C.ar    1  UNL1        0.0320
     14 C         137.9005  139.9937  162.7581 C.ar    1  UNL1        0.1674
     15 F         137.2747  141.0030  161.8417 F       1  UNL1       -0.2018
     16 C         138.1638  140.3446  164.1924 C.ar    1  UNL1        0.1673
     17 F         137.8014  141.7049  164.7105 F       1  UNL1       -0.2018
     18 O         143.9744  142.7406  169.1096 O.2     1  UNL1       -0.2684
     19 C         142.8177  142.2215  168.3081 C.2     1  UNL1        0.2654
     20 N         142.8344  142.3276  166.8119 N.am    1  UNL1       -0.2995
     21 H         142.0752  141.9868  166.2858 H       1  UNL1        0.1498
     22 C         144.0077  142.9528  166.1173 C.3     1  UNL1        0.0923
     23 C         143.9069  143.3331  164.6699 C.3     1  UNL1        0.0517
     24 C         143.1563  144.5083  164.1173 C.3     1  UNL1        0.0363
     25 C         143.3246  144.5066  162.6267 C.3     1  UNL1        0.1423
     26 O         144.1792  143.3302  162.2581 O.3     1  UNL1       -0.3537
     27 C         144.5391  142.6050  163.5209 C.3     1  UNL1        0.1439
@<TRIPOS>BOND
     1    18    19    2
     2    19    20   am
     3    20    22    1
     4    22    23    1
     5    23    24    1
     6    24    25    1
     7    25    26    1
     8    26    27    1
     9    19     1    1
    10     1     2    2
    11     2     3    1
    12     3     4    2
    13     4     5    1
    14     5     6    1
    15     6     7    2
    16     7    10    1
    17    10    11   ar
    18    11    12   ar
    19    12    13   ar
    20    13    14   ar
    21    14    15    1
    22    14    16   ar
    23    16    17    1
    24     7     8    1
    25     8     9    2
    26    27    23    1
    27     9     1    1
    28     9     4    1
    29    16    10   ar
    30    20    21    1
@<TRIPOS>MOLECULE
*****
 27 30 0 0 0
SMALL
GASTEIGER

@<TRIPOS>ATOM
      1 C         140.6332  139.5707  163.4732 C.2     1  UNL1        0.1571
      2 N         139.8080  138.6450  162.6292 N.2     1  UNL1       -0.1436
      3 N         138.7349  138.0587  163.4979 N.2     1  UNL1       -0.1519
      4 C         138.8967  138.6221  164.8786 C.2     1  UNL1        0.0865
      5 C         138.1273  138.4049  166.1478 C.3     1  UNL1        0.0736
      6 C         138.5312  139.1221  167.4017 C.2     1  UNL1       -0.0196
      7 C         139.7045  140.0566  167.3864 C.2     1  UNL1       -0.0016
      8 C         140.4738  140.2738  166.1173 C.2     1  UNL1        0.0027
      9 C         140.0700  139.5566  164.8634 C.2     1  UNL1        0.0395
     10 C         140.1084  140.7739  168.6404 C.ar    1  UNL1        0.0294
     11 C         140.3758  139.9974  169.8956 C.ar    1  UNL1        0.0024
     12 C         140.7797  140.7147  171.1496 C.ar    1  UNL1        0.0025
     13 C         140.9161  142.2085  171.1484 C.ar    1  UNL1        0.0320
     14 C         140.6487  142.9850  169.8931 C.ar    1  UNL1        0.1674
     15 F         140.7851  144.4788  169.8918 F       1  UNL1       -0.2018
     16 C         140.2448  142.2677  168.6392 C.ar    1  UNL1        0.1673
     17 F         139.9774  143.0442  167.3839 F       1  UNL1       -0.2018
     18 O         141.7573  141.1010  161.6999 O.2     1  UNL1       -0.2684
     19 C         141.8142  140.3703  163.0085 C.2     1  UNL1        0.2654
     20 N         143.0524  140.4390  163.8526 N.am    1  UNL1       -0.2995
     21 H         143.0898  139.9593  164.7116 H       1  UNL1        0.1498
     22 C         144.2334  141.2385  163.3880 C.3     1  UNL1        0.0923
     23 C         144.1633  142.7367  163.3667 C.3     1  UNL1        0.0517
     24 C         143.7857  143.6181  164.5202 C.3     1  UNL1        0.0363
     25 C         143.8475  145.0428  164.0546 C.3     1  UNL1        0.1423
     26 O         144.2632  145.0417  162.6133 O.3     1  UNL1       -0.3537
     27 C         144.4584  143.6165  162.1883 C.3     1  UNL1        0.1439
@<TRIPOS>BOND
     1    18    19    2
     2    19    20   am
     3    20    22    1
     4    22    23    1
     5    23    24    1
     6    24    25    1
     7    25    26    1
     8    26    27    1
     9    19     1    1
    10     1     2    2
    11     2     3    1
    12     3     4    2
    13     4     5    1
    14     5     6    1
    15     6     7    2
    16     7    10    1
    17    10    11   ar
    18    11    12   ar
    19    12    13   ar
    20    13    14   ar
    21    14    15    1
    22    14    16   ar
    23    16    17    1
    24     7     8    1
    25     8     9    2
    26    27    23    1
    27     9     1    1
    28     9     4    1
    29    16    10   ar
    30    20    21    1
@<TRIPOS>MOLECULE
*****
 27 30 0 0 0
SMALL
GASTEIGER

@<TRIPOS>ATOM
      1 C         140.2603  138.5746  163.9188 C.2     1  UNL1        0.1571
      2 N         139.1898  137.5929  163.5445 N.2     1  UNL1       -0.1436
      3 N         138.2282  137.4959  164.6916 N.2     1  UNL1       -0.1519
      4 C         138.7044  138.4176  165.7749 C.2     1  UNL1        0.0865
      5 C         138.1567  138.7359  167.1345 C.3     1  UNL1        0.0736
      6 C         138.8649  139.7210  168.0166 C.2     1  UNL1       -0.0196
      7 C         140.1209  140.3877  167.5390 C.2     1  UNL1       -0.0016
      8 C         140.6686  140.0693  166.1794 C.2     1  UNL1        0.0027
      9 C         139.9603  139.0843  165.2973 C.2     1  UNL1        0.0395
     10 C         140.8291  141.3728  168.4211 C.ar    1  UNL1        0.0294
     11 C         140.1104  142.5964  168.9071 C.ar    1  UNL1        0.0024
     12 C         140.8186  143.5815  169.7892 C.ar    1  UNL1        0.0025
     13 C         142.2456  143.3429  170.1853 C.ar    1  UNL1        0.0320
     14 C         142.9643  142.1192  169.6992 C.ar    1  UNL1        0.1674
     15 F         144.3912  141.8807  170.0953 F       1  UNL1       -0.2018
     16 C         142.2560  141.1342  168.8172 C.ar    1  UNL1        0.1673
     17 F         142.9748  139.9105  168.3312 F       1  UNL1       -0.2018
     18 O         141.2621  140.0464  162.0268 O.2     1  UNL1       -0.2684
     19 C         141.4262  138.9761  163.0647 C.2     1  UNL1        0.2654
     20 N         142.7562  138.3072  163.2486 N.am    1  UNL1       -0.2995
     21 H         142.8639  137.6047  163.9298 H       1  UNL1        0.1498
     22 C         143.9221  138.7087  162.3944 C.3     1  UNL1        0.0923
     23 C         144.5709  140.0466  162.5920 C.3     1  UNL1        0.0517
     24 C         145.2697  140.5128  163.8347 C.3     1  UNL1        0.0363
     25 C         145.7654  141.9076  163.5922 C.3     1  UNL1        0.1423
     26 O         145.3730  142.3035  162.1995 O.3     1  UNL1       -0.3537
     27 C         144.6347  141.1533  161.5814 C.3     1  UNL1        0.1439
@<TRIPOS>BOND
     1    18    19    2
     2    19    20   am
     3    20    22    1
     4    22    23    1
     5    23    24    1
     6    24    25    1
     7    25    26    1
     8    26    27    1
     9    19     1    1
    10     1     2    2
    11     2     3    1
    12     3     4    2
    13     4     5    1
    14     5     6    1
    15     6     7    2
    16     7    10    1
    17    10    11   ar
    18    11    12   ar
    19    12    13   ar
    20    13    14   ar
    21    14    15    1
    22    14    16   ar
    23    16    17    1
    24     7     8    1
    25     8     9    2
    26    27    23    1
    27     9     1    1
    28     9     4    1
    29    16    10   ar
    30    20    21    1
@<TRIPOS>MOLECULE
*****
 27 30 0 0 0
SMALL
GASTEIGER

@<TRIPOS>ATOM
      1 C         141.4490  139.6811  169.5680 C.2     1  UNL1        0.1571
      2 N         140.1244  139.7101  170.2711 N.2     1  UNL1       -0.1436
      3 N         139.0512  139.8485  169.2323 N.2     1  UNL1       -0.1519
      4 C         139.7126  139.9051  167.8872 C.2     1  UNL1        0.0865
      5 C         139.1569  140.0374  166.5002 C.3     1  UNL1        0.0736
      6 C         140.0832  140.0663  165.3208 C.2     1  UNL1       -0.0196
      7 C         141.5652  139.9628  165.5283 C.2     1  UNL1       -0.0016
      8 C         142.1209  139.8304  166.9152 C.2     1  UNL1        0.0027
      9 C         141.1946  139.8016  168.0946 C.2     1  UNL1        0.0395
     10 C         142.4915  139.9916  164.3487 C.ar    1  UNL1        0.0294
     11 C         143.1664  141.2724  163.9563 C.ar    1  UNL1        0.0024
     12 C         144.0927  141.3012  162.7768 C.ar    1  UNL1        0.0025
     13 C         144.3440  140.0493  161.9897 C.ar    1  UNL1        0.0320
     14 C         143.6689  138.7685  162.3822 C.ar    1  UNL1        0.1674
     15 F         143.9202  137.5165  161.5951 F       1  UNL1       -0.2018
     16 C         142.7427  138.7397  163.5616 C.ar    1  UNL1        0.1673
     17 F         142.0677  137.4589  163.9541 F       1  UNL1       -0.2018
     18 O         143.6820  140.7549  170.3495 O.2     1  UNL1       -0.2684
     19 C         142.7924  139.5539  170.2232 C.2     1  UNL1        0.2654
     20 N         143.2461  138.2255  170.7521 N.am    1  UNL1       -0.2995
     21 H         142.6622  137.4372  170.6692 H       1  UNL1        0.1498
     22 C         144.5895  138.0983  171.4073 C.3     1  UNL1        0.0923
     23 C         145.0407  136.7713  171.9414 C.3     1  UNL1        0.0517
     24 C         146.1681  136.5457  172.9048 C.3     1  UNL1        0.0363
     25 C         146.2679  135.0718  173.1647 C.3     1  UNL1        0.1423
     26 O         145.2020  134.3863  172.3619 O.3     1  UNL1       -0.3537
     27 C         144.4436  135.4368  171.6060 C.3     1  UNL1        0.1439
@<TRIPOS>BOND
     1    18    19    2
     2    19    20   am
     3    20    22    1
     4    22    23    1
     5    23    24    1
     6    24    25    1
     7    25    26    1
     8    26    27    1
     9    19     1    1
    10     1     2    2
    11     2     3    1
    12     3     4    2
    13     4     5    1
    14     5     6    1
    15     6     7    2
    16     7    10    1
    17    10    11   ar
    18    11    12   ar
    19    12    13   ar
    20    13    14   ar
    21    14    15    1
    22    14    16   ar
    23    16    17    1
    24     7     8    1
    25     8     9    2
    26    27    23    1
    27     9     1    1
    28     9     4    1
    29    16    10   ar
    30    20    21    1
@<TRIPOS>MOLECULE
*****
 27 30 0 0 0
SMALL
GASTEIGER

@<TRIPOS>ATOM
      1 C         143.3645  140.8518  163.0524 C.2     1  UNL1        0.1571
      2 N         144.2662  139.8442  162.4031 N.2     1  UNL1       -0.1436
      3 N         144.5448  138.7601  163.4017 N.2     1  UNL1       -0.1519
      4 C         143.8154  139.0978  164.6682 C.2     1  UNL1        0.0865
      5 C         143.7212  138.3951  165.9900 C.3     1  UNL1        0.0736
      6 C         142.8974  138.9852  167.0960 C.2     1  UNL1       -0.0196
      7 C         142.1679  140.2779  166.8801 C.2     1  UNL1       -0.0016
      8 C         142.2622  140.9806  165.5583 C.2     1  UNL1        0.0027
      9 C         143.0859  140.3905  164.4523 C.2     1  UNL1        0.0395
     10 C         141.3442  140.8680  167.9862 C.ar    1  UNL1        0.0294
     11 C         140.1657  140.1144  168.5277 C.ar    1  UNL1        0.0024
     12 C         139.3420  140.7045  169.6338 C.ar    1  UNL1        0.0025
     13 C         139.6967  142.0482  170.1983 C.ar    1  UNL1        0.0320
     14 C         140.8753  142.8018  169.6567 C.ar    1  UNL1        0.1674
     15 F         141.2300  144.1455  170.2211 F       1  UNL1       -0.2018
     16 C         141.6989  142.2117  168.5507 C.ar    1  UNL1        0.1673
     17 F         142.8775  142.9653  168.0091 F       1  UNL1       -0.2018
     18 O         142.0984  142.0230  161.1094 O.2     1  UNL1       -0.2684
     19 C         142.8345  142.1014  162.4140 C.2     1  UNL1        0.2654
     20 N         143.0405  143.4295  163.0802 N.am    1  UNL1       -0.2995
     21 H         143.5237  143.4810  163.9365 H       1  UNL1        0.1498
     22 C         142.5105  144.6791  162.4418 C.3     1  UNL1        0.0923
     23 C         141.0365  144.9571  162.4476 C.3     1  UNL1        0.0517
     24 C         140.0596  144.5124  163.4954 C.3     1  UNL1        0.0363
     25 C         138.6999  145.0091  163.1020 C.3     1  UNL1        0.1423
     26 O         138.8366  145.7608  161.8111 O.3     1  UNL1       -0.3537
     27 C         140.2807  145.7286  161.4067 C.3     1  UNL1        0.1439
@<TRIPOS>BOND
     1    18    19    2
     2    19    20   am
     3    20    22    1
     4    22    23    1
     5    23    24    1
     6    24    25    1
     7    25    26    1
     8    26    27    1
     9    19     1    1
    10     1     2    2
    11     2     3    1
    12     3     4    2
    13     4     5    1
    14     5     6    1
    15     6     7    2
    16     7    10    1
    17    10    11   ar
    18    11    12   ar
    19    12    13   ar
    20    13    14   ar
    21    14    15    1
    22    14    16   ar
    23    16    17    1
    24     7     8    1
    25     8     9    2
    26    27    23    1
    27     9     1    1
    28     9     4    1
    29    16    10   ar
    30    20    21    1
