@<TRIPOS>MOLECULE
*****
 22 23 0 0 0
SMALL
GASTEIGER

@<TRIPOS>ATOM
      1 O         141.2586  140.9486  163.8274 O.2     1  UNL1       -0.2699
      2 C         140.5562  140.4775  165.0662 C.2     1  UNL1        0.2501
      3 N         139.1493  139.9641  164.9814 N.am    1  UNL1       -0.2685
      4 C         141.2606  140.5198  166.3898 C.ar    1  UNL1        0.0650
      5 C         142.0739  139.3442  166.8445 C.ar    1  UNL1        0.0054
      6 C         142.7783  139.3865  168.1681 C.ar    1  UNL1        0.0011
      7 C         142.6695  140.6044  169.0371 C.ar    1  UNL1        0.0123
      8 C         141.8563  141.7799  168.5824 C.ar    1  UNL1        0.0683
      9 CL        141.7475  142.9978  169.4513 Cl      1  UNL1       -0.0814
     10 C         141.1519  141.7376  167.2587 C.ar    1  UNL1        0.0725
     11 CL        140.3386  142.9132  166.8041 Cl      1  UNL1       -0.0812
     12 C         138.4449  139.9218  163.6578 C.3     1  UNL1        0.0930
     13 C         138.5176  138.8082  162.6555 C.3     1  UNL1        0.0383
     14 C         137.6617  139.1838  161.4823 C.3     1  UNL1        0.0704
     15 N         137.0599  140.5296  161.7596 N.3     1  UNL1       -0.2960
     16 C         137.5440  140.9857  163.1041 C.3     1  UNL1        0.0887
     17 H         136.0424  140.4596  161.7635 H       1  UNL1        0.1233
     18 C         138.4469  139.4930  166.2203 C.3     1  UNL1        0.1976
     19 C         138.0958  138.0432  166.3780 C.3     1  UNL1        0.4157
     20 F         137.7447  136.5935  166.5357 F       1  UNL1       -0.1682
     21 F         136.9213  138.4205  167.2312 F       1  UNL1       -0.1682
     22 F         139.2704  137.6660  165.5248 F       1  UNL1       -0.1682
@<TRIPOS>BOND
     1     1     2    2
     2     2     4    1
     3     4     5   ar
     4     5     6   ar
     5     6     7   ar
     6     7     8   ar
     7     8     9    1
     8     8    10   ar
     9    10    11    1
    10     2     3   am
    11     3    18    1
    12    18    19    1
    13    19    20    1
    14    19    21    1
    15    19    22    1
    16    12     3    1
    17    12    13    1
    18    13    14    1
    19    14    15    1
    20    15    16    1
    21    10     4   ar
    22    16    12    1
    23    15    17    1
@<TRIPOS>MOLECULE
*****
 22 23 0 0 0
SMALL
GASTEIGER

@<TRIPOS>ATOM
      1 O         142.8977  139.3860  166.5658 O.2     1  UNL1       -0.2699
      2 C         141.4709  139.7112  166.8954 C.2     1  UNL1        0.2501
      3 N         140.3771  139.3425  165.9375 N.am    1  UNL1       -0.2685
      4 C         141.1381  140.4051  168.1829 C.ar    1  UNL1        0.0650
      5 C         141.0705  139.6227  169.4609 C.ar    1  UNL1        0.0054
      6 C         140.7376  140.3166  170.7484 C.ar    1  UNL1        0.0011
      7 C         140.4723  141.7929  170.7579 C.ar    1  UNL1        0.0123
      8 C         140.5399  142.5753  169.4799 C.ar    1  UNL1        0.0683
      9 CL        140.2746  144.0517  169.4894 Cl      1  UNL1       -0.0814
     10 C         140.8728  141.8814  168.1924 C.ar    1  UNL1        0.0725
     11 CL        140.9403  142.6639  166.9144 Cl      1  UNL1       -0.0812
     12 C         140.7100  138.6486  164.6500 C.3     1  UNL1        0.0930
     13 C         140.7556  139.2841  163.2921 C.3     1  UNL1        0.0383
     14 C         141.1295  138.2256  162.2972 C.3     1  UNL1        0.0704
     15 N         141.3150  136.9359  163.0402 N.3     1  UNL1       -0.2960
     16 C         141.0557  137.1973  164.4944 C.3     1  UNL1        0.0887
     17 H         142.2690  136.5978  162.9141 H       1  UNL1        0.1233
     18 C         138.9503  139.6677  166.2671 C.3     1  UNL1        0.1976
     19 C         138.0542  138.6118  166.8433 C.3     1  UNL1        0.4157
     20 F         137.1582  137.5558  167.4194 F       1  UNL1       -0.1682
     21 F         138.0205  137.9157  165.5150 F       1  UNL1       -0.1682
     22 F         138.0880  139.3078  168.1715 F       1  UNL1       -0.1682
@<TRIPOS>BOND
     1     1     2    2
     2     2     4    1
     3     4     5   ar
     4     5     6   ar
     5     6     7   ar
     6     7     8   ar
     7     8     9    1
     8     8    10   ar
     9    10    11    1
    10     2     3   am
    11     3    18    1
    12    18    19    1
    13    19    20    1
    14    19    21    1
    15    19    22    1
    16    12     3    1
    17    12    13    1
    18    13    14    1
    19    14    15    1
    20    15    16    1
    21    10     4   ar
    22    16    12    1
    23    15    17    1
@<TRIPOS>MOLECULE
*****
 22 23 0 0 0
SMALL
GASTEIGER

@<TRIPOS>ATOM
      1 O         142.2795  140.7881  164.4316 O.2     1  UNL1       -0.2699
      2 C         141.0772  141.4688  165.0157 C.2     1  UNL1        0.2501
      3 N         140.8294  142.9219  164.7384 N.am    1  UNL1       -0.2685
      4 C         140.1226  140.6962  165.8771 C.ar    1  UNL1        0.0650
      5 C         139.1020  139.7965  165.2454 C.ar    1  UNL1        0.0054
      6 C         138.1475  139.0240  166.1068 C.ar    1  UNL1        0.0011
      7 C         138.2135  139.1511  167.6000 C.ar    1  UNL1        0.0123
      8 C         139.2341  140.0508  168.2317 C.ar    1  UNL1        0.0683
      9 CL        139.3001  140.1779  169.7249 Cl      1  UNL1       -0.0814
     10 C         140.1886  140.8233  167.3703 C.ar    1  UNL1        0.0725
     11 CL        141.2092  141.7230  168.0020 Cl      1  UNL1       -0.0812
     12 C         141.7840  143.6944  163.8770 C.3     1  UNL1        0.0930
     13 C         143.1247  144.2191  164.2979 C.3     1  UNL1        0.0383
     14 C         143.7347  144.9268  163.1245 C.3     1  UNL1        0.0704
     15 N         142.7710  144.8397  161.9783 N.3     1  UNL1       -0.2960
     16 C         141.5654  144.0780  162.4434 C.3     1  UNL1        0.0887
     17 H         143.2073  144.3527  161.1955 H       1  UNL1        0.1233
     18 C         139.6271  143.6026  165.3225 C.3     1  UNL1        0.1976
     19 C         138.4844  143.9986  164.4351 C.3     1  UNL1        0.4157
     20 F         137.3418  144.3945  163.5477 F       1  UNL1       -0.1682
     21 F         137.8660  142.6456  164.6277 F       1  UNL1       -0.1682
     22 F         139.1028  145.3515  164.2426 F       1  UNL1       -0.1682
@<TRIPOS>BOND
     1     1     2    2
     2     2     4    1
     3     4     5   ar
     4     5     6   ar
     5     6     7   ar
     6     7     8   ar
     7     8     9    1
     8     8    10   ar
     9    10    11    1
    10     2     3   am
    11     3    18    1
    12    18    19    1
    13    19    20    1
    14    19    21    1
    15    19    22    1
    16    12     3    1
    17    12    13    1
    18    13    14    1
    19    14    15    1
    20    15    16    1
    21    10     4   ar
    22    16    12    1
    23    15    17    1
@<TRIPOS>MOLECULE
*****
 22 23 0 0 0
SMALL
GASTEIGER

@<TRIPOS>ATOM
      1 O         138.0713  139.1197  167.9789 O.2     1  UNL1       -0.2699
      2 C         139.1197  139.4585  166.9609 C.2     1  UNL1        0.2501
      3 N         140.3787  140.1553  167.3842 N.am    1  UNL1       -0.2685
      4 C         138.9089  139.1005  165.5196 C.ar    1  UNL1        0.0650
      5 C         139.1916  137.7062  165.0441 C.ar    1  UNL1        0.0054
      6 C         138.9808  137.3481  163.6027 C.ar    1  UNL1        0.0011
      7 C         138.4873  138.3844  162.6369 C.ar    1  UNL1        0.0123
      8 C         138.2047  139.7786  163.1125 C.ar    1  UNL1        0.0683
      9 CL        137.7112  140.8149  162.1467 Cl      1  UNL1       -0.0814
     10 C         138.4154  140.1367  164.5538 C.ar    1  UNL1        0.0725
     11 CL        138.1327  141.5310  165.0293 Cl      1  UNL1       -0.0812
     12 C         140.5895  140.5133  168.8255 C.3     1  UNL1        0.0930
     13 C         140.2493  141.8259  169.4668 C.3     1  UNL1        0.0383
     14 C         140.6270  141.7455  170.9163 C.3     1  UNL1        0.0704
     15 N         141.2007  140.3831  171.1708 N.3     1  UNL1       -0.2960
     16 C         141.1774  139.6216  169.8787 C.3     1  UNL1        0.0887
     17 H         140.6394  139.8962  171.8696 H       1  UNL1        0.1233
     18 C         141.4271  140.4940  166.3662 C.3     1  UNL1        0.1976
     19 C         142.2622  139.4060  165.7590 C.3     1  UNL1        0.4157
     20 F         143.0973  138.3180  165.1518 F       1  UNL1       -0.1682
     21 F         142.7281  139.0007  167.1260 F       1  UNL1       -0.1682
     22 F         141.7963  139.8113  164.3921 F       1  UNL1       -0.1682
@<TRIPOS>BOND
     1     1     2    2
     2     2     4    1
     3     4     5   ar
     4     5     6   ar
     5     6     7   ar
     6     7     8   ar
     7     8     9    1
     8     8    10   ar
     9    10    11    1
    10     2     3   am
    11     3    18    1
    12    18    19    1
    13    19    20    1
    14    19    21    1
    15    19    22    1
    16    12     3    1
    17    12    13    1
    18    13    14    1
    19    14    15    1
    20    15    16    1
    21    10     4   ar
    22    16    12    1
    23    15    17    1
@<TRIPOS>MOLECULE
*****
 22 23 0 0 0
SMALL
GASTEIGER

@<TRIPOS>ATOM
      1 O         138.6035  139.7069  166.3641 O.2     1  UNL1       -0.2699
      2 C         139.9975  139.9263  166.8727 C.2     1  UNL1        0.2501
      3 N         141.1736  139.4966  166.0468 N.am    1  UNL1       -0.2685
      4 C         140.2154  140.5754  168.2073 C.ar    1  UNL1        0.0650
      5 C         140.3493  139.7303  169.4395 C.ar    1  UNL1        0.0054
      6 C         140.5671  140.3795  170.7741 C.ar    1  UNL1        0.0011
      7 C         140.6511  141.8736  170.8766 C.ar    1  UNL1        0.0123
      8 C         140.5173  142.7186  169.6445 C.ar    1  UNL1        0.0683
      9 CL        140.6013  144.2128  169.7470 Cl      1  UNL1       -0.0814
     10 C         140.2994  142.0695  168.3099 C.ar    1  UNL1        0.0725
     11 CL        140.1656  142.9146  167.0778 Cl      1  UNL1       -0.0812
     12 C         140.9557  138.8475  164.7122 C.3     1  UNL1        0.0930
     13 C         140.7124  139.5596  163.4146 C.3     1  UNL1        0.0383
     14 C         140.5492  138.5245  162.3413 C.3     1  UNL1        0.0704
     15 N         140.6917  137.1727  162.9755 N.3     1  UNL1       -0.2960
     16 C         140.9429  137.3723  164.4408 C.3     1  UNL1        0.0887
     17 H         141.4755  136.6738  162.5547 H       1  UNL1        0.1233
     18 C         142.5676  139.7161  166.5554 C.3     1  UNL1        0.1976
     19 C         143.4806  138.5455  166.7700 C.3     1  UNL1        0.4157
     20 F         144.3936  137.3749  166.9846 F       1  UNL1       -0.1682
     21 F         143.0215  138.4486  168.1947 F       1  UNL1       -0.1682
     22 F         143.9397  138.6424  165.3453 F       1  UNL1       -0.1682
@<TRIPOS>BOND
     1     1     2    2
     2     2     4    1
     3     4     5   ar
     4     5     6   ar
     5     6     7   ar
     6     7     8   ar
     7     8     9    1
     8     8    10   ar
     9    10    11    1
    10     2     3   am
    11     3    18    1
    12    18    19    1
    13    19    20    1
    14    19    21    1
    15    19    22    1
    16    12     3    1
    17    12    13    1
    18    13    14    1
    19    14    15    1
    20    15    16    1
    21    10     4   ar
    22    16    12    1
    23    15    17    1
@<TRIPOS>MOLECULE
*****
 22 23 0 0 0
SMALL
GASTEIGER

@<TRIPOS>ATOM
      1 O         143.5850  142.4756  168.4369 O.2     1  UNL1       -0.2699
      2 C         142.7597  142.3165  167.1944 C.2     1  UNL1        0.2501
      3 N         141.2646  142.2445  167.2912 N.am    1  UNL1       -0.2685
      4 C         143.4296  142.2295  165.8551 C.ar    1  UNL1        0.0650
      5 C         143.8706  143.4804  165.1544 C.ar    1  UNL1        0.0054
      6 C         144.5405  143.3934  163.8151 C.ar    1  UNL1        0.0011
      7 C         144.7695  142.0555  163.1766 C.ar    1  UNL1        0.0123
      8 C         144.3285  140.8047  163.8773 C.ar    1  UNL1        0.0683
      9 CL        144.5574  139.4668  163.2387 Cl      1  UNL1       -0.0814
     10 C         143.6585  140.8917  165.2165 C.ar    1  UNL1        0.0725
     11 CL        143.2176  139.6408  165.9172 Cl      1  UNL1       -0.0812
     12 C         140.5947  142.3315  168.6305 C.3     1  UNL1        0.0930
     13 C         140.4883  143.5597  169.4850 C.3     1  UNL1        0.0383
     14 C         139.7414  143.1929  170.7330 C.3     1  UNL1        0.0704
     15 N         139.3861  141.7379  170.6498 N.3     1  UNL1       -0.2960
     16 C         139.9135  141.2056  169.3504 C.3     1  UNL1        0.0887
     17 H         138.3728  141.6266  170.6838 H       1  UNL1        0.1233
     18 C         140.4393  142.0854  166.0487 C.3     1  UNL1        0.1976
     19 C         140.1866  143.2669  165.1598 C.3     1  UNL1        0.4157
     20 F         139.9339  144.4484  164.2709 F       1  UNL1       -0.1682
     21 F         139.5258  143.9833  166.3000 F       1  UNL1       -0.1682
     22 F         140.8474  142.5504  164.0197 F       1  UNL1       -0.1682
@<TRIPOS>BOND
     1     1     2    2
     2     2     4    1
     3     4     5   ar
     4     5     6   ar
     5     6     7   ar
     6     7     8   ar
     7     8     9    1
     8     8    10   ar
     9    10    11    1
    10     2     3   am
    11     3    18    1
    12    18    19    1
    13    19    20    1
    14    19    21    1
    15    19    22    1
    16    12     3    1
    17    12    13    1
    18    13    14    1
    19    14    15    1
    20    15    16    1
    21    10     4   ar
    22    16    12    1
    23    15    17    1
@<TRIPOS>MOLECULE
*****
 22 23 0 0 0
SMALL
GASTEIGER

@<TRIPOS>ATOM
      1 O         138.0546  138.7989  167.4562 O.2     1  UNL1       -0.2699
      2 C         138.9167  139.6505  166.5721 C.2     1  UNL1        0.2501
      3 N         140.1069  140.3613  167.1449 N.am    1  UNL1       -0.2685
      4 C         138.5886  139.7912  165.1152 C.ar    1  UNL1        0.0650
      5 C         137.7782  140.9599  164.6384 C.ar    1  UNL1        0.0054
      6 C         137.4501  141.1006  163.1815 C.ar    1  UNL1        0.0011
      7 C         137.9324  140.0725  162.2014 C.ar    1  UNL1        0.0123
      8 C         138.7428  138.9039  162.6782 C.ar    1  UNL1        0.0683
      9 CL        139.2251  137.8758  161.6981 Cl      1  UNL1       -0.0814
     10 C         139.0709  138.7632  164.1351 C.ar    1  UNL1        0.0725
     11 CL        139.8813  137.5944  164.6119 Cl      1  UNL1       -0.0812
     12 C         140.4350  140.2206  168.6018 C.3     1  UNL1        0.0930
     13 C         139.5891  140.6954  169.7459 C.3     1  UNL1        0.0383
     14 C         140.2979  140.3486  171.0216 C.3     1  UNL1        0.0704
     15 N         141.5819  139.6596  170.6659 N.3     1  UNL1       -0.2960
     16 C         141.6666  139.5804  169.1704 C.3     1  UNL1        0.0887
     17 H         141.5923  138.7202  171.0634 H       1  UNL1        0.1233
     18 C         140.9691  141.2128  166.2608 C.3     1  UNL1        0.1976
     19 C         140.5220  142.5937  165.8822 C.3     1  UNL1        0.4157
     20 F         140.0748  143.9745  165.5036 F       1  UNL1       -0.1682
     21 F         140.2754  142.9101  167.3275 F       1  UNL1       -0.1682
     22 F         140.7685  142.2773  164.4369 F       1  UNL1       -0.1682
@<TRIPOS>BOND
     1     1     2    2
     2     2     4    1
     3     4     5   ar
     4     5     6   ar
     5     6     7   ar
     6     7     8   ar
     7     8     9    1
     8     8    10   ar
     9    10    11    1
    10     2     3   am
    11     3    18    1
    12    18    19    1
    13    19    20    1
    14    19    21    1
    15    19    22    1
    16    12     3    1
    17    12    13    1
    18    13    14    1
    19    14    15    1
    20    15    16    1
    21    10     4   ar
    22    16    12    1
    23    15    17    1
@<TRIPOS>MOLECULE
*****
 22 23 0 0 0
SMALL
GASTEIGER

@<TRIPOS>ATOM
      1 O         143.0251  139.9938  165.9379 O.2     1  UNL1       -0.2699
      2 C         141.6019  140.2428  166.3413 C.2     1  UNL1        0.2501
      3 N         140.4813  139.6298  165.5550 N.am    1  UNL1       -0.2685
      4 C         141.2994  141.1050  167.5309 C.ar    1  UNL1        0.0650
      5 C         140.6566  142.4469  167.3407 C.ar    1  UNL1        0.0054
      6 C         140.3542  143.3090  168.5304 C.ar    1  UNL1        0.0011
      7 C         140.6945  142.8292  169.9102 C.ar    1  UNL1        0.0123
      8 C         141.3373  141.4873  170.1004 C.ar    1  UNL1        0.0683
      9 CL        141.6777  141.0075  171.4803 Cl      1  UNL1       -0.0814
     10 C         141.6398  140.6252  168.9108 C.ar    1  UNL1        0.0725
     11 CL        142.2826  139.2833  169.1010 Cl      1  UNL1       -0.0812
     12 C         140.7837  138.7676  164.3653 C.3     1  UNL1        0.0930
     13 C         140.8504  139.2258  162.9386 C.3     1  UNL1        0.0383
     14 C         141.1805  138.0373  162.0850 C.3     1  UNL1        0.0704
     15 N         141.3177  136.8446  162.9842 N.3     1  UNL1       -0.2960
     16 C         141.0725  137.2960  164.3935 C.3     1  UNL1        0.0887
     17 H         142.2576  136.4566  162.9036 H       1  UNL1        0.1233
     18 C         139.0581  139.8788  165.9584 C.3     1  UNL1        0.1976
     19 C         138.2717  138.7985  166.6400 C.3     1  UNL1        0.4157
     20 F         137.4854  137.7182  167.3215 F       1  UNL1       -0.1682
     21 F         138.5716  139.4203  167.9716 F       1  UNL1       -0.1682
     22 F         137.9718  138.1766  165.3083 F       1  UNL1       -0.1682
@<TRIPOS>BOND
     1     1     2    2
     2     2     4    1
     3     4     5   ar
     4     5     6   ar
     5     6     7   ar
     6     7     8   ar
     7     8     9    1
     8     8    10   ar
     9    10    11    1
    10     2     3   am
    11     3    18    1
    12    18    19    1
    13    19    20    1
    14    19    21    1
    15    19    22    1
    16    12     3    1
    17    12    13    1
    18    13    14    1
    19    14    15    1
    20    15    16    1
    21    10     4   ar
    22    16    12    1
    23    15    17    1
@<TRIPOS>MOLECULE
*****
 22 23 0 0 0
SMALL
GASTEIGER

@<TRIPOS>ATOM
      1 O         140.3625  143.2909  167.9261 O.2     1  UNL1       -0.2699
      2 C         140.1629  142.4299  166.7140 C.2     1  UNL1        0.2501
      3 N         140.3584  140.9457  166.8079 N.am    1  UNL1       -0.2685
      4 C         139.7677  143.0533  165.4082 C.ar    1  UNL1        0.0650
      5 C         138.3178  143.1729  165.0425 C.ar    1  UNL1        0.0054
      6 C         137.9226  143.7962  163.7367 C.ar    1  UNL1        0.0011
      7 C         138.9773  144.3000  162.7964 C.ar    1  UNL1        0.0123
      8 C         140.4271  144.1803  163.1621 C.ar    1  UNL1        0.0683
      9 CL        141.4818  144.6841  162.2219 Cl      1  UNL1       -0.0814
     10 C         140.8223  143.5570  164.4680 C.ar    1  UNL1        0.0725
     11 CL        142.2722  143.4374  164.8336 Cl      1  UNL1       -0.0812
     12 C         140.7536  140.3224  168.1137 C.3     1  UNL1        0.0930
     13 C         142.1105  139.7843  168.4590 C.3     1  UNL1        0.0383
     14 C         142.0568  139.2570  169.8623 C.3     1  UNL1        0.0704
     15 N         140.6666  139.4692  170.3843 N.3     1  UNL1       -0.2960
     16 C         139.8612  140.1276  169.3036 C.3     1  UNL1        0.0887
     17 H         140.6943  140.0685  171.2092 H       1  UNL1        0.1233
     18 C         140.1587  140.0848  165.5958 C.3     1  UNL1        0.1976
     19 C         139.3010  138.8572  165.6809 C.3     1  UNL1        0.4157
     20 F         138.4433  137.6296  165.7660 F       1  UNL1       -0.1682
     21 F         140.4939  138.0022  165.3709 F       1  UNL1       -0.1682
     22 F         138.1082  139.7121  165.9909 F       1  UNL1       -0.1682
@<TRIPOS>BOND
     1     1     2    2
     2     2     4    1
     3     4     5   ar
     4     5     6   ar
     5     6     7   ar
     6     7     8   ar
     7     8     9    1
     8     8    10   ar
     9    10    11    1
    10     2     3   am
    11     3    18    1
    12    18    19    1
    13    19    20    1
    14    19    21    1
    15    19    22    1
    16    12     3    1
    17    12    13    1
    18    13    14    1
    19    14    15    1
    20    15    16    1
    21    10     4   ar
    22    16    12    1
    23    15    17    1
