@<TRIPOS>MOLECULE
*****
 36 39 0 0 0
SMALL
GASTEIGER

@<TRIPOS>ATOM
      1 C         142.5323  140.3774  165.3008 C.3     1  UNL1        0.0545
      2 C         141.6198  140.4415  166.4895 C.3     1  UNL1        0.0162
      3 C         140.4207  139.5881  166.2000 C.3     1  UNL1        0.0100
      4 C         140.5922  138.9965  164.8323 C.3     1  UNL1        0.0704
      5 C         141.8972  139.4843  164.2766 C.3     1  UNL1        0.0243
      6 C         140.4862  138.2712  163.5236 C.2     1  UNL1        0.2248
      7 O         140.9401  136.8455  163.4173 O.2     1  UNL1       -0.2749
      8 N         139.9264  138.9717  162.3211 N.am    1  UNL1       -0.2760
      9 C         139.4725  140.3974  162.4274 C.3     1  UNL1        0.1149
     10 C         138.9126  141.0979  161.2250 C.3     1  UNL1        0.1137
     11 N         138.8066  140.3727  159.9162 N.pl3   1  UNL1       -0.2885
     12 C         139.2605  138.9470  159.8099 C.3     1  UNL1        0.1137
     13 C         139.8204  138.2465  161.0124 C.3     1  UNL1        0.1149
     14 C         138.2468  141.0733  158.7138 C.ar    1  UNL1        0.1511
     15 C         138.7623  142.4277  158.3273 C.ar    1  UNL1        0.1331
     16 N         138.2024  143.1283  157.1248 N.ar    1  UNL1       -0.2379
     17 C         137.1270  142.4742  156.3090 C.ar    1  UNL1        0.1220
     18 C         136.6115  141.1197  156.6955 C.ar    1  UNL1        0.1730
     19 N         137.1713  140.4191  157.8979 N.ar    1  UNL1       -0.2235
     20 C         135.5360  140.4656  155.8796 C.3     1  UNL1        0.4364
     21 F         134.4606  139.8116  155.0637 F       1  UNL1       -0.1644
     22 F         134.7151  140.2688  157.1195 F       1  UNL1       -0.1644
     23 F         136.3570  140.6625  154.6397 F       1  UNL1       -0.1644
     24 C         139.2650  138.3571  165.1145 C.3     1  UNL1        0.0082
     25 C         138.1274  139.1868  165.6317 C.3     1  UNL1        0.0005
     26 C         138.9183  137.4391  165.0381 C.3     1  UNL1        0.0005
     27 N         143.8488  141.0825  165.1608 N.3     1  UNL1       -0.2975
     28 H         144.1183  141.3913  166.0949 H       1  UNL1        0.1232
     29 C         144.4905  142.1105  162.8626 C.3     1  UNL1        0.1591
     30 C         144.6103  143.3032  161.9610 C.3     1  UNL1        0.1729
     31 O         144.2081  144.6609  162.4560 O.3     1  UNL1       -0.3511
     32 C         143.6862  144.8258  163.8526 C.3     1  UNL1        0.1437
     33 C         143.5665  143.6330  164.7541 C.3     1  UNL1        0.0503
     34 C         143.9686  142.2754  164.2592 C.3     1  UNL1        0.0865
     35 C         144.0575  140.0525  161.3371 C.3     1  UNL1        0.1742
     36 O         144.8927  140.7528  162.3677 O.3     1  UNL1       -0.3496
@<TRIPOS>BOND
     1    35    36    1
     2    29    36    1
     3    29    30    1
     4    30    31    1
     5    31    32    1
     6    32    33    1
     7    33    34    1
     8    34    27    1
     9     1    27    1
    10     1     2    1
    11     2     3    1
    12     3     4    1
    13     4     6    1
    14     6     7    2
    15     6     8   am
    16     8     9    1
    17     9    10    1
    18    10    11    1
    19    11    14    1
    20    14    15   ar
    21    15    16   ar
    22    16    17   ar
    23    17    18   ar
    24    18    20    1
    25    20    21    1
    26    20    22    1
    27    20    23    1
    28    18    19   ar
    29    11    12    1
    30    12    13    1
    31     4    24    1
    32    24    25    1
    33    24    26    1
    34     4     5    1
    35    34    29    1
    36     5     1    1
    37    13     8    1
    38    19    14   ar
    39    27    28    1
@<TRIPOS>MOLECULE
*****
 36 39 0 0 0
SMALL
GASTEIGER

@<TRIPOS>ATOM
      1 C         140.1778  141.8929  165.0134 C.3     1  UNL1        0.0545
      2 C         141.2146  141.9492  166.0959 C.3     1  UNL1        0.0162
      3 C         142.3141  142.8609  165.6378 C.3     1  UNL1        0.0100
      4 C         141.9569  143.3680  164.2720 C.3     1  UNL1        0.0704
      5 C         140.6366  142.7697  163.8862 C.3     1  UNL1        0.0243
      6 C         141.8719  144.0291  162.9283 C.2     1  UNL1        0.2248
      7 O         141.1801  145.3523  162.7857 O.2     1  UNL1       -0.2749
      8 N         142.4788  143.3668  161.7269 N.am    1  UNL1       -0.2760
      9 C         143.1706  142.0436  161.8695 C.3     1  UNL1        0.1149
     10 C         143.7775  141.3813  160.6682 C.3     1  UNL1        0.1137
     11 N         143.6926  142.0423  159.3243 N.pl3   1  UNL1       -0.2885
     12 C         143.0007  143.3655  159.1818 C.3     1  UNL1        0.1137
     13 C         142.3939  144.0278  160.3831 C.3     1  UNL1        0.1149
     14 C         144.2995  141.3800  158.1231 C.ar    1  UNL1        0.1511
     15 C         143.7312  140.0899  157.6107 C.ar    1  UNL1        0.1331
     16 N         144.3381  139.4276  156.4094 N.ar    1  UNL1       -0.2379
     17 C         145.5133  140.0556  155.7205 C.ar    1  UNL1        0.1220
     18 C         146.0816  141.3457  156.2329 C.ar    1  UNL1        0.1730
     19 N         145.4747  142.0080  157.4342 N.ar    1  UNL1       -0.2235
     20 C         147.2568  141.9736  155.5439 C.3     1  UNL1        0.4364
     21 F         148.4320  142.6015  154.8550 F       1  UNL1       -0.1644
     22 F         147.5731  142.7479  156.7891 F       1  UNL1       -0.1644
     23 F         146.9405  141.1993  154.2988 F       1  UNL1       -0.1644
     24 C         143.2594  144.1044  164.3770 C.3     1  UNL1        0.0082
     25 C         144.4504  143.4371  164.9985 C.3     1  UNL1        0.0005
     26 C         143.5590  145.0045  164.1148 C.3     1  UNL1        0.0005
     27 N         138.9057  141.0990  165.0514 N.3     1  UNL1       -0.2975
     28 H         138.8791  140.6284  165.9559 H       1  UNL1        0.1232
     29 C         137.8372  140.3896  162.7919 C.3     1  UNL1        0.1591
     30 C         137.5757  139.3418  161.7509 C.3     1  UNL1        0.1729
     31 O         138.1209  137.9558  161.9283 O.3     1  UNL1       -0.3511
     32 C         138.9277  137.6174  163.1467 C.3     1  UNL1        0.1437
     33 C         139.1893  138.6652  164.1877 C.3     1  UNL1        0.0503
     34 C         138.6441  140.0513  164.0103 C.3     1  UNL1        0.0865
     35 C         137.9290  142.7120  161.6310 C.3     1  UNL1        0.1742
     36 O         137.2920  141.7757  162.6145 O.3     1  UNL1       -0.3496
@<TRIPOS>BOND
     1    35    36    1
     2    29    36    1
     3    29    30    1
     4    30    31    1
     5    31    32    1
     6    32    33    1
     7    33    34    1
     8    34    27    1
     9     1    27    1
    10     1     2    1
    11     2     3    1
    12     3     4    1
    13     4     6    1
    14     6     7    2
    15     6     8   am
    16     8     9    1
    17     9    10    1
    18    10    11    1
    19    11    14    1
    20    14    15   ar
    21    15    16   ar
    22    16    17   ar
    23    17    18   ar
    24    18    20    1
    25    20    21    1
    26    20    22    1
    27    20    23    1
    28    18    19   ar
    29    11    12    1
    30    12    13    1
    31     4    24    1
    32    24    25    1
    33    24    26    1
    34     4     5    1
    35    34    29    1
    36     5     1    1
    37    13     8    1
    38    19    14   ar
    39    27    28    1
@<TRIPOS>MOLECULE
*****
 36 39 0 0 0
SMALL
GASTEIGER

@<TRIPOS>ATOM
      1 C         141.2430  141.8151  164.5811 C.3     1  UNL1        0.0545
      2 C         141.5240  140.9342  165.7622 C.3     1  UNL1        0.0162
      3 C         140.9314  139.5843  165.4852 C.3     1  UNL1        0.0100
      4 C         140.2840  139.6310  164.1328 C.3     1  UNL1        0.0704
      5 C         140.4766  141.0097  163.5741 C.3     1  UNL1        0.0243
      6 C         139.5650  139.3785  162.8409 C.2     1  UNL1        0.2248
      7 O         138.0683  139.4618  162.7867 O.2     1  UNL1       -0.2749
      8 N         140.3427  139.0427  161.6029 N.am    1  UNL1       -0.2760
      9 C         141.8394  138.9593  161.6571 C.3     1  UNL1        0.1149
     10 C         142.6172  138.6235  160.4192 C.3     1  UNL1        0.1137
     11 N         141.8983  138.3710  159.1272 N.pl3   1  UNL1       -0.2885
     12 C         140.4016  138.4543  159.0731 C.3     1  UNL1        0.1137
     13 C         139.6238  138.7901  160.3109 C.3     1  UNL1        0.1149
     14 C         142.6760  138.0351  157.8894 C.ar    1  UNL1        0.1511
     15 C         143.3546  139.1234  157.1116 C.ar    1  UNL1        0.1331
     16 N         144.1324  138.7875  155.8737 N.ar    1  UNL1       -0.2379
     17 C         144.2315  137.3633  155.4137 C.ar    1  UNL1        0.1220
     18 C         143.5529  136.2749  156.1915 C.ar    1  UNL1        0.1730
     19 N         142.7752  136.6108  157.4293 N.ar    1  UNL1       -0.2235
     20 C         143.6521  134.8507  155.7314 C.3     1  UNL1        0.4364
     21 F         143.7513  133.4265  155.2713 F       1  UNL1       -0.1644
     22 F         144.0976  134.4386  157.1031 F       1  UNL1       -0.1644
     23 F         143.2066  135.2628  154.3596 F       1  UNL1       -0.1644
     24 C         139.9412  138.1996  164.4215 C.3     1  UNL1        0.0082
     25 C         141.0280  137.1685  164.4971 C.3     1  UNL1        0.0005
     26 C         139.0991  137.7190  164.5905 C.3     1  UNL1        0.0005
     27 N         141.6558  143.2496  164.4330 N.3     1  UNL1       -0.2975
     28 H         141.3192  143.7399  165.2617 H       1  UNL1        0.1232
     29 C         139.9614  144.8861  163.3371 C.3     1  UNL1        0.1591
     30 C         139.5041  145.6792  162.1490 C.3     1  UNL1        0.1729
     31 O         140.2838  145.6291  160.8686 O.3     1  UNL1       -0.3511
     32 C         141.5209  144.7859  160.7763 C.3     1  UNL1        0.1437
     33 C         141.9782  143.9927  161.9644 C.3     1  UNL1        0.0503
     34 C         141.1984  144.0428  163.2448 C.3     1  UNL1        0.0865
     35 C         137.8866  144.1889  164.7368 C.3     1  UNL1        0.1742
     36 O         139.1816  144.9362  164.6176 O.3     1  UNL1       -0.3496
@<TRIPOS>BOND
     1    35    36    1
     2    29    36    1
     3    29    30    1
     4    30    31    1
     5    31    32    1
     6    32    33    1
     7    33    34    1
     8    34    27    1
     9     1    27    1
    10     1     2    1
    11     2     3    1
    12     3     4    1
    13     4     6    1
    14     6     7    2
    15     6     8   am
    16     8     9    1
    17     9    10    1
    18    10    11    1
    19    11    14    1
    20    14    15   ar
    21    15    16   ar
    22    16    17   ar
    23    17    18   ar
    24    18    20    1
    25    20    21    1
    26    20    22    1
    27    20    23    1
    28    18    19   ar
    29    11    12    1
    30    12    13    1
    31     4    24    1
    32    24    25    1
    33    24    26    1
    34     4     5    1
    35    34    29    1
    36     5     1    1
    37    13     8    1
    38    19    14   ar
    39    27    28    1
@<TRIPOS>MOLECULE
*****
 36 39 0 0 0
SMALL
GASTEIGER

@<TRIPOS>ATOM
      1 C         138.1566  142.4464  163.6481 C.3     1  UNL1        0.0545
      2 C         137.6778  143.8509  163.4289 C.3     1  UNL1        0.0162
      3 C         138.8808  144.7263  163.2376 C.3     1  UNL1        0.0100
      4 C         140.1031  143.8627  163.3385 C.3     1  UNL1        0.0704
      5 C         139.6555  142.4537  163.5921 C.3     1  UNL1        0.0243
      6 C         141.4791  143.2677  163.3885 C.2     1  UNL1        0.2248
      7 O         142.2153  143.1891  164.6930 O.2     1  UNL1       -0.2749
      8 N         142.1189  142.7511  162.1339 N.am    1  UNL1       -0.2760
      9 C         141.3826  142.8297  160.8294 C.3     1  UNL1        0.1149
     10 C         142.0224  142.3131  159.5749 C.3     1  UNL1        0.1137
     11 N         143.3984  141.7181  159.6248 N.pl3   1  UNL1       -0.2885
     12 C         144.1346  141.6395  160.9293 C.3     1  UNL1        0.1137
     13 C         143.4949  142.1560  162.1839 C.3     1  UNL1        0.1149
     14 C         144.0381  141.2015  158.3702 C.ar    1  UNL1        0.1511
     15 C         143.5520  139.9247  157.7513 C.ar    1  UNL1        0.1331
     16 N         144.1918  139.4081  156.4967 N.ar    1  UNL1       -0.2379
     17 C         145.3176  140.1686  155.8611 C.ar    1  UNL1        0.1220
     18 C         145.8038  141.4455  156.4800 C.ar    1  UNL1        0.1730
     19 N         145.1641  141.9621  157.7346 N.ar    1  UNL1       -0.2235
     20 C         146.9297  142.2060  155.8444 C.3     1  UNL1        0.4364
     21 F         148.0556  142.9664  155.2087 F       1  UNL1       -0.1644
     22 F         147.0738  143.0322  157.0880 F       1  UNL1       -0.1644
     23 F         146.7857  141.3797  154.6008 F       1  UNL1       -0.1644
     24 C         140.8383  145.1473  163.0953 C.3     1  UNL1        0.0082
     25 C         140.3738  146.0856  162.0211 C.3     1  UNL1        0.0005
     26 C         141.6269  145.5716  163.5035 C.3     1  UNL1        0.0005
     27 N         137.2888  141.2455  163.8820 N.3     1  UNL1       -0.2975
     28 H         136.6633  141.4798  164.6529 H       1  UNL1        0.1232
     29 C         138.3005  138.9771  163.1198 C.3     1  UNL1        0.1591
     30 C         138.9244  137.6549  163.4550 C.3     1  UNL1        0.1729
     31 O         139.1605  137.2787  164.8878 O.3     1  UNL1       -0.3511
     32 C         138.7727  138.2248  165.9852 C.3     1  UNL1        0.1437
     33 C         138.1488  139.5470  165.6500 C.3     1  UNL1        0.0503
     34 C         137.9127  139.9232  164.2172 C.3     1  UNL1        0.0865
     35 C         139.2133  139.7897  160.8271 C.3     1  UNL1        0.1742
     36 O         138.0644  139.3533  161.6870 O.3     1  UNL1       -0.3496
@<TRIPOS>BOND
     1    35    36    1
     2    29    36    1
     3    29    30    1
     4    30    31    1
     5    31    32    1
     6    32    33    1
     7    33    34    1
     8    34    27    1
     9     1    27    1
    10     1     2    1
    11     2     3    1
    12     3     4    1
    13     4     6    1
    14     6     7    2
    15     6     8   am
    16     8     9    1
    17     9    10    1
    18    10    11    1
    19    11    14    1
    20    14    15   ar
    21    15    16   ar
    22    16    17   ar
    23    17    18   ar
    24    18    20    1
    25    20    21    1
    26    20    22    1
    27    20    23    1
    28    18    19   ar
    29    11    12    1
    30    12    13    1
    31     4    24    1
    32    24    25    1
    33    24    26    1
    34     4     5    1
    35    34    29    1
    36     5     1    1
    37    13     8    1
    38    19    14   ar
    39    27    28    1
@<TRIPOS>MOLECULE
*****
 36 39 0 0 0
SMALL
GASTEIGER

@<TRIPOS>ATOM
      1 C         142.8538  142.2744  159.6712 C.3     1  UNL1        0.0545
      2 C         143.9387  141.5942  158.8900 C.3     1  UNL1        0.0162
      3 C         143.7349  140.1127  159.0068 C.3     1  UNL1        0.0100
      4 C         142.5240  139.8773  159.8601 C.3     1  UNL1        0.0704
      5 C         141.9795  141.2133  160.2708 C.3     1  UNL1        0.0243
      6 C         141.3768  139.3391  160.6628 C.2     1  UNL1        0.2248
      7 O         140.1871  138.7469  159.9670 O.2     1  UNL1       -0.2749
      8 N         141.4191  139.3931  162.1612 N.am    1  UNL1       -0.2760
      9 C         142.6088  139.9853  162.8570 C.3     1  UNL1        0.1149
     10 C         142.6512  140.0394  164.3554 C.3     1  UNL1        0.1137
     11 N         141.5041  139.5012  165.1581 N.pl3   1  UNL1       -0.2885
     12 C         140.3144  138.9090  164.4624 C.3     1  UNL1        0.1137
     13 C         140.2720  138.8550  162.9639 C.3     1  UNL1        0.1149
     14 C         141.5465  139.5553  166.6565 C.ar    1  UNL1        0.1511
     15 C         142.8139  139.2166  167.3836 C.ar    1  UNL1        0.1331
     16 N         142.8564  139.2706  168.8821 N.ar    1  UNL1       -0.2379
     17 C         141.6313  139.6634  169.6533 C.ar    1  UNL1        0.1220
     18 C         140.3638  140.0021  168.9262 C.ar    1  UNL1        0.1730
     19 N         140.3213  139.9481  167.4278 N.ar    1  UNL1       -0.2235
     20 C         139.1388  140.3949  169.6976 C.3     1  UNL1        0.4364
     21 F         137.9137  140.7876  170.4689 F       1  UNL1       -0.1644
     22 F         138.2863  139.6156  168.7405 F       1  UNL1       -0.1644
     23 F         139.9912  141.1741  170.6547 F       1  UNL1       -0.1644
     24 C         142.8287  138.4288  159.6173 C.3     1  UNL1        0.0082
     25 C         142.6696  137.8490  158.2431 C.3     1  UNL1        0.0005
     26 C         143.1373  137.6898  160.1894 C.3     1  UNL1        0.0005
     27 N         142.6748  143.7556  159.8256 N.3     1  UNL1       -0.2975
     28 H         143.6089  144.1598  159.8923 H       1  UNL1        0.1232
     29 C         142.5775  144.6610  162.2589 C.3     1  UNL1        0.1591
     30 C         141.7871  145.2046  163.4121 C.3     1  UNL1        0.1729
     31 O         140.3037  145.3866  163.2851 O.3     1  UNL1       -0.3511
     32 C         139.6105  145.0249  162.0050 C.3     1  UNL1        0.1437
     33 C         140.4009  144.4813  160.8519 C.3     1  UNL1        0.0503
     34 C         141.8844  144.2993  160.9788 C.3     1  UNL1        0.0865
     35 C         144.6175  143.1752  162.8761 C.3     1  UNL1        0.1742
     36 O         144.0610  144.4790  162.3859 O.3     1  UNL1       -0.3496
@<TRIPOS>BOND
     1    35    36    1
     2    29    36    1
     3    29    30    1
     4    30    31    1
     5    31    32    1
     6    32    33    1
     7    33    34    1
     8    34    27    1
     9     1    27    1
    10     1     2    1
    11     2     3    1
    12     3     4    1
    13     4     6    1
    14     6     7    2
    15     6     8   am
    16     8     9    1
    17     9    10    1
    18    10    11    1
    19    11    14    1
    20    14    15   ar
    21    15    16   ar
    22    16    17   ar
    23    17    18   ar
    24    18    20    1
    25    20    21    1
    26    20    22    1
    27    20    23    1
    28    18    19   ar
    29    11    12    1
    30    12    13    1
    31     4    24    1
    32    24    25    1
    33    24    26    1
    34     4     5    1
    35    34    29    1
    36     5     1    1
    37    13     8    1
    38    19    14   ar
    39    27    28    1
@<TRIPOS>MOLECULE
*****
 36 39 0 0 0
SMALL
GASTEIGER

@<TRIPOS>ATOM
      1 C         142.7640  140.0228  164.9513 C.3     1  UNL1        0.0545
      2 C         142.8018  138.5298  165.0909 C.3     1  UNL1        0.0162
      3 C         141.4109  138.0092  164.8801 C.3     1  UNL1        0.0100
      4 C         140.5135  139.1804  164.6102 C.3     1  UNL1        0.0704
      5 C         141.3498  140.4249  164.6542 C.3     1  UNL1        0.0243
      6 C         139.3924  140.1332  164.3184 C.2     1  UNL1        0.2248
      7 O         138.3714  140.4361  165.3747 O.2     1  UNL1       -0.2749
      8 N         139.2921  140.7831  162.9702 N.am    1  UNL1       -0.2760
      9 C         140.3131  140.4802  161.9139 C.3     1  UNL1        0.1149
     10 C         140.2130  141.1300  160.5657 C.3     1  UNL1        0.1137
     11 N         139.0919  142.0828  160.2738 N.pl3   1  UNL1       -0.2885
     12 C         138.0709  142.3857  161.3301 C.3     1  UNL1        0.1137
     13 C         138.1710  141.7359  162.6783 C.3     1  UNL1        0.1149
     14 C         138.9917  142.7326  158.9256 C.ar    1  UNL1        0.1511
     15 C         139.9960  143.7687  158.5158 C.ar    1  UNL1        0.1331
     16 N         139.8959  144.4185  157.1676 N.ar    1  UNL1       -0.2379
     17 C         138.7914  144.0322  156.2291 C.ar    1  UNL1        0.1220
     18 C         137.7870  142.9962  156.6388 C.ar    1  UNL1        0.1730
     19 N         137.8871  142.3463  157.9870 N.ar    1  UNL1       -0.2235
     20 C         136.6825  142.6100  155.7003 C.3     1  UNL1        0.4364
     21 F         135.5780  142.2238  154.7617 F       1  UNL1       -0.1644
     22 F         136.8248  141.1776  156.1222 F       1  UNL1       -0.1644
     23 F         136.5402  144.0423  155.2783 F       1  UNL1       -0.1644
     24 C         139.4429  138.1352  164.5053 C.3     1  UNL1        0.0082
     25 C         139.0468  137.5995  163.1613 C.3     1  UNL1        0.0005
     26 C         138.8790  137.6657  165.1612 C.3     1  UNL1        0.0005
     27 N         143.9349  140.9508  165.0852 N.3     1  UNL1       -0.2975
     28 H         143.9488  141.2694  166.0541 H       1  UNL1        0.1232
     29 C         144.5741  142.0783  162.8335 C.3     1  UNL1        0.1591
     30 C         144.6618  143.3039  161.9733 C.3     1  UNL1        0.1729
     31 O         144.1983  144.6279  162.5046 O.3     1  UNL1       -0.3511
     32 C         143.6469  144.7261  163.8961 C.3     1  UNL1        0.1437
     33 C         143.5591  143.5004  164.7563 C.3     1  UNL1        0.0503
     34 C         144.0227  142.1765  164.2250 C.3     1  UNL1        0.0865
     35 C         144.0957  139.8893  161.5184 C.3     1  UNL1        0.1742
     36 O         145.0377  140.7543  162.3022 O.3     1  UNL1       -0.3496
@<TRIPOS>BOND
     1    35    36    1
     2    29    36    1
     3    29    30    1
     4    30    31    1
     5    31    32    1
     6    32    33    1
     7    33    34    1
     8    34    27    1
     9     1    27    1
    10     1     2    1
    11     2     3    1
    12     3     4    1
    13     4     6    1
    14     6     7    2
    15     6     8   am
    16     8     9    1
    17     9    10    1
    18    10    11    1
    19    11    14    1
    20    14    15   ar
    21    15    16   ar
    22    16    17   ar
    23    17    18   ar
    24    18    20    1
    25    20    21    1
    26    20    22    1
    27    20    23    1
    28    18    19   ar
    29    11    12    1
    30    12    13    1
    31     4    24    1
    32    24    25    1
    33    24    26    1
    34     4     5    1
    35    34    29    1
    36     5     1    1
    37    13     8    1
    38    19    14   ar
    39    27    28    1
@<TRIPOS>MOLECULE
*****
 36 39 0 0 0
SMALL
GASTEIGER

@<TRIPOS>ATOM
      1 C         141.7028  142.5028  165.1856 C.3     1  UNL1        0.0545
      2 C         142.5598  141.7913  166.1903 C.3     1  UNL1        0.0162
      3 C         143.8344  141.3884  165.5099 C.3     1  UNL1        0.0100
      4 C         143.7652  141.8509  164.0846 C.3     1  UNL1        0.0704
      5 C         142.4478  142.5396  163.8842 C.3     1  UNL1        0.0243
      6 C         143.9808  142.1839  162.6381 C.2     1  UNL1        0.2248
      7 O         144.6709  143.4601  162.2570 O.2     1  UNL1       -0.2749
      8 N         143.5064  141.2408  161.5725 N.am    1  UNL1       -0.2760
      9 C         142.8163  139.9646  161.9536 C.3     1  UNL1        0.1149
     10 C         142.3419  139.0214  160.8881 C.3     1  UNL1        0.1137
     11 N         142.5574  139.3544  159.4415 N.pl3   1  UNL1       -0.2885
     12 C         143.2475  140.6306  159.0604 C.3     1  UNL1        0.1137
     13 C         143.7219  141.5738  160.1259 C.3     1  UNL1        0.1149
     14 C         142.0829  138.4112  158.3760 C.ar    1  UNL1        0.1511
     15 C         140.7096  138.5673  157.7935 C.ar    1  UNL1        0.1331
     16 N         140.2351  137.6241  156.7280 N.ar    1  UNL1       -0.2379
     17 C         141.1341  136.5249  156.2450 C.ar    1  UNL1        0.1220
     18 C         142.5075  136.3687  156.8275 C.ar    1  UNL1        0.1730
     19 N         142.9820  137.3119  157.8930 N.ar    1  UNL1       -0.2235
     20 C         143.4065  135.2694  156.3444 C.3     1  UNL1        0.4364
     21 F         144.3055  134.1701  155.8614 F       1  UNL1       -0.1644
     22 F         143.4561  134.7005  157.7315 F       1  UNL1       -0.1644
     23 F         143.3569  135.8383  154.9574 F       1  UNL1       -0.1644
     24 C         145.1277  141.2319  163.9826 C.3     1  UNL1        0.0082
     25 C         145.3140  139.7746  164.2857 C.3     1  UNL1        0.0005
     26 C         146.0185  141.5751  163.7432 C.3     1  UNL1        0.0005
     27 N         140.3401  143.0766  165.4379 N.3     1  UNL1       -0.2975
     28 H         140.0328  142.7189  166.3424 H       1  UNL1        0.1232
     29 C         138.8479  143.8630  163.4618 C.3     1  UNL1        0.1591
     30 C         137.7334  143.6031  162.4921 C.3     1  UNL1        0.1729
     31 O         136.9965  142.2971  162.5288 O.3     1  UNL1       -0.3511
     32 C         137.3742  141.2510  163.5352 C.3     1  UNL1        0.1437
     33 C         138.4887  141.5108  164.5049 C.3     1  UNL1        0.0503
     34 C         139.2255  142.8168  164.4682 C.3     1  UNL1        0.0865
     35 C         139.8011  145.8716  162.1176 C.3     1  UNL1        0.1742
     36 O         139.5848  145.1690  163.4251 O.3     1  UNL1       -0.3496
@<TRIPOS>BOND
     1    35    36    1
     2    29    36    1
     3    29    30    1
     4    30    31    1
     5    31    32    1
     6    32    33    1
     7    33    34    1
     8    34    27    1
     9     1    27    1
    10     1     2    1
    11     2     3    1
    12     3     4    1
    13     4     6    1
    14     6     7    2
    15     6     8   am
    16     8     9    1
    17     9    10    1
    18    10    11    1
    19    11    14    1
    20    14    15   ar
    21    15    16   ar
    22    16    17   ar
    23    17    18   ar
    24    18    20    1
    25    20    21    1
    26    20    22    1
    27    20    23    1
    28    18    19   ar
    29    11    12    1
    30    12    13    1
    31     4    24    1
    32    24    25    1
    33    24    26    1
    34     4     5    1
    35    34    29    1
    36     5     1    1
    37    13     8    1
    38    19    14   ar
    39    27    28    1
@<TRIPOS>MOLECULE
*****
 36 39 0 0 0
SMALL
GASTEIGER

@<TRIPOS>ATOM
      1 C         139.9059  142.2062  164.6042 C.3     1  UNL1        0.0545
      2 C         140.0067  143.6900  164.8002 C.3     1  UNL1        0.0162
      3 C         141.4356  144.0905  164.5816 C.3     1  UNL1        0.0100
      4 C         142.2180  142.8543  164.2505 C.3     1  UNL1        0.0704
      5 C         141.2726  141.6898  164.2645 C.3     1  UNL1        0.0243
      6 C         143.2428  141.8161  163.9012 C.2     1  UNL1        0.2248
      7 O         144.2488  141.3810  164.9252 O.2     1  UNL1       -0.2749
      8 N         143.2615  141.2130  162.5279 N.am    1  UNL1       -0.2760
      9 C         142.2555  141.6482  161.5040 C.3     1  UNL1        0.1149
     10 C         142.2742  141.0451  160.1306 C.3     1  UNL1        0.1137
     11 N         143.2989  140.0069  159.7813 N.pl3   1  UNL1       -0.2885
     12 C         144.3050  139.5718  160.8052 C.3     1  UNL1        0.1137
     13 C         144.2863  140.1749  162.1785 C.3     1  UNL1        0.1149
     14 C         143.3176  139.4039  158.4079 C.ar    1  UNL1        0.1511
     15 C         143.7327  140.2342  157.2298 C.ar    1  UNL1        0.1331
     16 N         143.7514  139.6311  155.8565 N.ar    1  UNL1       -0.2379
     17 C         143.3549  138.1977  155.6614 C.ar    1  UNL1        0.1220
     18 C         142.9397  137.3674  156.8396 C.ar    1  UNL1        0.1730
     19 N         142.9211  137.9704  158.2129 N.ar    1  UNL1       -0.2235
     20 C         142.5433  135.9340  156.6444 C.3     1  UNL1        0.4364
     21 F         142.1468  134.5006  156.4493 F       1  UNL1       -0.1644
     22 F         143.9857  135.5269  156.7040 F       1  UNL1       -0.1644
     23 F         141.1008  136.3411  156.5848 F       1  UNL1       -0.1644
     24 C         143.3775  143.8017  164.1635 C.3     1  UNL1        0.0082
     25 C         143.5214  144.7039  162.9738 C.3     1  UNL1        0.0005
     26 C         144.1437  144.0001  164.7485 C.3     1  UNL1        0.0005
     27 N         138.6577  141.3835  164.7265 N.3     1  UNL1       -0.2975
     28 H         138.6253  141.0384  165.6858 H       1  UNL1        0.1232
     29 C         137.7747  140.3676  162.5043 C.3     1  UNL1        0.1591
     30 C         137.5679  139.1811  161.6101 C.3     1  UNL1        0.1729
     31 O         138.0373  137.8241  162.0440 O.3     1  UNL1       -0.3511
     32 C         138.7135  137.6536  163.3720 C.3     1  UNL1        0.1437
     33 C         138.9203  138.8400  164.2661 C.3     1  UNL1        0.0503
     34 C         138.4509  140.1970  163.8323 C.3     1  UNL1        0.0865
     35 C         138.2201  142.6201  161.2887 C.3     1  UNL1        0.1742
     36 O         137.3053  141.7246  162.0704 O.3     1  UNL1       -0.3496
@<TRIPOS>BOND
     1    35    36    1
     2    29    36    1
     3    29    30    1
     4    30    31    1
     5    31    32    1
     6    32    33    1
     7    33    34    1
     8    34    27    1
     9     1    27    1
    10     1     2    1
    11     2     3    1
    12     3     4    1
    13     4     6    1
    14     6     7    2
    15     6     8   am
    16     8     9    1
    17     9    10    1
    18    10    11    1
    19    11    14    1
    20    14    15   ar
    21    15    16   ar
    22    16    17   ar
    23    17    18   ar
    24    18    20    1
    25    20    21    1
    26    20    22    1
    27    20    23    1
    28    18    19   ar
    29    11    12    1
    30    12    13    1
    31     4    24    1
    32    24    25    1
    33    24    26    1
    34     4     5    1
    35    34    29    1
    36     5     1    1
    37    13     8    1
    38    19    14   ar
    39    27    28    1
@<TRIPOS>MOLECULE
*****
 36 39 0 0 0
SMALL
GASTEIGER

@<TRIPOS>ATOM
      1 C         141.3434  142.4786  165.7999 C.3     1  UNL1        0.0545
      2 C         142.7019  142.4755  166.4358 C.3     1  UNL1        0.0162
      3 C         143.3366  141.1432  166.1670 C.3     1  UNL1        0.0100
      4 C         142.3703  140.3229  165.3648 C.3     1  UNL1        0.0704
      5 C         141.1384  141.1482  165.1380 C.3     1  UNL1        0.0243
      6 C         141.6291  139.2848  164.5757 C.2     1  UNL1        0.2248
      7 O         140.6955  138.3389  165.2711 O.2     1  UNL1       -0.2749
      8 N         141.8214  139.1925  163.0909 N.am    1  UNL1       -0.2760
      9 C         142.7550  140.1383  162.3954 C.3     1  UNL1        0.1149
     10 C         142.9474  140.0461  160.9106 C.3     1  UNL1        0.1137
     11 N         142.2063  139.0080  160.1214 N.pl3   1  UNL1       -0.2885
     12 C         141.2727  138.0621  160.8169 C.3     1  UNL1        0.1137
     13 C         141.0803  138.1544  162.3016 C.3     1  UNL1        0.1149
     14 C         142.3987  138.9158  158.6366 C.ar    1  UNL1        0.1511
     15 C         142.0475  140.0818  157.7609 C.ar    1  UNL1        0.1331
     16 N         142.2399  139.9896  156.2762 N.ar    1  UNL1       -0.2379
     17 C         142.7835  138.7312  155.6672 C.ar    1  UNL1        0.1220
     18 C         143.1348  137.5651  156.5429 C.ar    1  UNL1        0.1730
     19 N         142.9423  137.6573  158.0276 N.ar    1  UNL1       -0.2235
     20 C         143.6784  136.3067  155.9338 C.3     1  UNL1        0.4364
     21 F         144.2220  135.0484  155.3247 F       1  UNL1       -0.1644
     22 F         144.8160  137.0848  155.3417 F       1  UNL1       -0.1644
     23 F         142.5408  135.5287  156.5258 F       1  UNL1       -0.1644
     24 C         143.4471  139.2806  165.4267 C.3     1  UNL1        0.0082
     25 C         144.7583  139.5148  164.7368 C.3     1  UNL1        0.0005
     26 C         143.5169  138.3938  165.8478 C.3     1  UNL1        0.0005
     27 N         140.3622  143.6129  165.8220 N.3     1  UNL1       -0.2975
     28 H         139.5881  143.3211  166.4187 H       1  UNL1        0.1232
     29 C         140.5528  144.9986  163.6325 C.3     1  UNL1        0.1591
     30 C         139.9493  145.4932  162.3515 C.3     1  UNL1        0.1729
     31 O         138.5515  145.0967  161.9788 O.3     1  UNL1       -0.3511
     32 C         137.7572  144.2056  162.8872 C.3     1  UNL1        0.1437
     33 C         138.3608  143.7110  164.1682 C.3     1  UNL1        0.0503
     34 C         139.7586  144.1075  164.5409 C.3     1  UNL1        0.0865
     35 C         143.1191  144.7898  163.2854 C.3     1  UNL1        0.1742
     36 O         141.9506  145.3952  164.0052 O.3     1  UNL1       -0.3496
@<TRIPOS>BOND
     1    35    36    1
     2    29    36    1
     3    29    30    1
     4    30    31    1
     5    31    32    1
     6    32    33    1
     7    33    34    1
     8    34    27    1
     9     1    27    1
    10     1     2    1
    11     2     3    1
    12     3     4    1
    13     4     6    1
    14     6     7    2
    15     6     8   am
    16     8     9    1
    17     9    10    1
    18    10    11    1
    19    11    14    1
    20    14    15   ar
    21    15    16   ar
    22    16    17   ar
    23    17    18   ar
    24    18    20    1
    25    20    21    1
    26    20    22    1
    27    20    23    1
    28    18    19   ar
    29    11    12    1
    30    12    13    1
    31     4    24    1
    32    24    25    1
    33    24    26    1
    34     4     5    1
    35    34    29    1
    36     5     1    1
    37    13     8    1
    38    19    14   ar
    39    27    28    1
