@<TRIPOS>MOLECULE
*****
 40 45 0 0 0
SMALL
GASTEIGER

@<TRIPOS>ATOM
      1 C         142.7446  135.6532  157.5886 C.ar    1  UNL1        0.2400
      2 N         142.1686  135.2454  156.2650 N.ar    1  UNL1       -0.2090
      3 C         141.4348  136.2488  155.4252 C.ar    1  UNL1        0.1021
      4 C         141.0952  137.7425  155.6086 C.ar    1  UNL1        0.0207
      5 C         141.8671  137.1711  156.7609 C.ar    1  UNL1        0.0221
      6 C         142.5870  137.0642  158.0725 C.ar    1  UNL1        0.1178
      7 N         143.1770  137.4333  159.4013 N.pl3   1  UNL1       -0.2104
      8 S         143.5732  138.2386  160.6032 S.O2    1  UNL1        0.0737
      9 O         144.0213  136.8083  160.6617 O.2     1  UNL1       -0.1499
     10 O         144.3294  137.8947  161.8521 O.2     1  UNL1       -0.1499
     11 C         143.6797  139.7379  161.6393 C.ar    1  UNL1        0.1253
     12 C         144.4203  139.5118  162.9240 C.ar    1  UNL1        0.0202
     13 C         144.6004  140.6411  163.8946 C.ar    1  UNL1        0.0015
     14 C         144.0400  141.9965  163.5806 C.ar    1  UNL1        0.0046
     15 C         143.2994  142.2227  162.2960 C.ar    1  UNL1        0.0547
     16 C         143.1192  141.0934  161.3253 C.ar    1  UNL1        0.0247
     17 C         142.7538  143.5920  162.0179 C.2     1  UNL1        0.2459
     18 O         143.2033  144.2947  163.2646 O.2     1  UNL1       -0.2701
     19 N         142.0602  144.7300  161.3296 N.am    1  UNL1       -0.2989
     20 C         141.2938  145.5134  160.3054 C.3     1  UNL1        0.1161
     21 C         140.5375  145.8572  159.0564 C.3     1  UNL1        0.1487
     22 N         139.8735  145.7243  157.7180 N.ar    1  UNL1       -0.2476
     23 C         139.3736  145.1290  156.4352 C.ar    1  UNL1        0.0982
     24 C         139.0920  144.1359  155.3470 C.ar    1  UNL1        0.0574
     25 C         138.5837  145.5341  155.1561 C.ar    1  UNL1        0.1231
     26 N         138.9799  146.3393  156.3581 N.ar    1  UNL1       -0.1676
     27 C         139.0592  142.8523  154.5712 C.ar    1  UNL1        0.0875
     28 N         138.3080  143.7656  153.6482 N.ar    1  UNL1       -0.2239
     29 C         137.7764  143.2441  152.3461 C.ar    1  UNL1        0.1988
     30 N         137.9960  141.8095  151.9670 N.ar    1  UNL1       -0.2240
     31 C         138.7472  140.8964  152.8900 C.ar    1  UNL1        0.0845
     32 C         139.0471  139.2968  152.5721 C.ar    1  UNL1        0.0192
     33 C         139.7823  138.3001  153.4182 C.ar    1  UNL1        0.0016
     34 C         140.3551  138.7165  154.7405 C.ar    1  UNL1        0.0017
     35 C         139.7269  139.9875  154.2506 C.ar    1  UNL1        0.0031
     36 C         139.2788  141.4178  154.1921 C.ar    1  UNL1        0.0355
     37 H         143.5635  136.5639  159.6541 H       1  UNL1        0.1739
     38 H         142.2054  145.4371  161.9991 H       1  UNL1        0.1498
     39 C         144.1226  133.4592  157.7823 C.3     1  UNL1        0.2543
     40 O         143.4784  134.6499  158.4282 O.3     1  UNL1       -0.4553
@<TRIPOS>BOND
     1    39    40    1
     2    40     1    1
     3     1     2   ar
     4     2     3   ar
     5     3     4   ar
     6     4     5   ar
     7     5     6   ar
     8     6     7    1
     9     7     8    1
    10     8     9    2
    11     8    10    2
    12     8    11    1
    13    11    12   ar
    14    12    13   ar
    15    13    14   ar
    16    14    15   ar
    17    15    16   ar
    18    15    17    1
    19    17    18    2
    20    17    19   am
    21    19    20    1
    22    20    21    1
    23    21    22    1
    24    22    23   ar
    25    23    24   ar
    26    24    25   ar
    27    25    26   ar
    28    24    27    1
    29    27    28   ar
    30    28    29   ar
    31    29    30   ar
    32    30    31   ar
    33    31    32   ar
    34    32    33   ar
    35    33    34   ar
    36    34    35   ar
    37    35    36   ar
    38     6     1   ar
    39    16    11   ar
    40    26    22   ar
    41    36    27   ar
    42    34     4    1
    43    36    31   ar
    44     7    37    1
    45    19    38    1
@<TRIPOS>MOLECULE
*****
 40 45 0 0 0
SMALL
GASTEIGER

@<TRIPOS>ATOM
      1 C         139.2475  146.8727  156.8285 C.ar    1  UNL1        0.2400
      2 N         139.1461  146.7906  155.3342 N.ar    1  UNL1       -0.2090
      3 C         139.5414  145.5300  154.6238 C.ar    1  UNL1        0.1021
      4 C         140.0790  144.1650  155.1014 C.ar    1  UNL1        0.0207
      5 C         139.8299  145.1236  156.2279 C.ar    1  UNL1        0.0221
      6 C         139.7443  145.6943  157.6124 C.ar    1  UNL1        0.1178
      7 N         139.8314  145.8151  159.1050 N.pl3   1  UNL1       -0.2104
      8 S         140.0820  145.4732  160.5439 S.O2    1  UNL1        0.0737
      9 O         139.5589  146.8637  160.3373 O.2     1  UNL1       -0.1499
     10 O         139.9123  146.2484  161.8167 O.2     1  UNL1       -0.1499
     11 C         140.5913  144.4073  161.9358 C.ar    1  UNL1        0.1253
     12 C         140.4632  145.0825  163.2690 C.ar    1  UNL1        0.0202
     13 C         140.8400  144.3476  164.5212 C.ar    1  UNL1        0.0015
     14 C         141.3449  142.9375  164.4400 C.ar    1  UNL1        0.0046
     15 C         141.4730  142.2622  163.1068 C.ar    1  UNL1        0.0547
     16 C         141.0962  142.9971  161.8547 C.ar    1  UNL1        0.0247
     17 C         141.9817  140.8517  163.0668 C.2     1  UNL1        0.2459
     18 O         142.1933  140.6239  164.5342 O.2     1  UNL1       -0.2701
     19 N         142.4207  139.5162  162.5439 N.am    1  UNL1       -0.2989
     20 C         142.7425  138.4003  161.5944 C.3     1  UNL1        0.1161
     21 C         142.9122  137.6251  160.3215 C.3     1  UNL1        0.1487
     22 N         142.9114  137.2745  158.8630 N.ar    1  UNL1       -0.2476
     23 C         142.7402  137.3867  157.3771 C.ar    1  UNL1        0.0982
     24 C         142.4172  137.9492  156.0246 C.ar    1  UNL1        0.0574
     25 C         142.9333  136.5420  156.0835 C.ar    1  UNL1        0.1231
     26 N         143.1838  136.2000  157.5223 N.ar    1  UNL1       -0.1676
     27 C         141.9772  138.9013  154.9522 C.ar    1  UNL1        0.0875
     28 N         142.3427  137.6973  154.1356 N.ar    1  UNL1       -0.2239
     29 C         142.1991  137.7317  152.6429 C.ar    1  UNL1        0.1988
     30 N         141.6900  138.9702  151.9668 N.ar    1  UNL1       -0.2240
     31 C         141.3246  140.1742  152.7834 C.ar    1  UNL1        0.0845
     32 C         140.7532  141.5924  152.1419 C.ar    1  UNL1        0.0192
     33 C         140.3601  142.8490  152.8604 C.ar    1  UNL1        0.0016
     34 C         140.4647  142.9224  154.3550 C.ar    1  UNL1        0.0017
     35 C         140.9451  141.5303  154.0695 C.ar    1  UNL1        0.0031
     36 C         141.4682  140.1397  154.2761 C.ar    1  UNL1        0.0355
     37 H         139.5057  146.7380  159.2121 H       1  UNL1        0.1739
     38 H         142.6544  139.0781  163.3940 H       1  UNL1        0.1498
     39 C         138.4858  149.3553  156.7501 C.3     1  UNL1        0.2543
     40 O         138.8522  148.1333  157.5389 O.3     1  UNL1       -0.4553
@<TRIPOS>BOND
     1    39    40    1
     2    40     1    1
     3     1     2   ar
     4     2     3   ar
     5     3     4   ar
     6     4     5   ar
     7     5     6   ar
     8     6     7    1
     9     7     8    1
    10     8     9    2
    11     8    10    2
    12     8    11    1
    13    11    12   ar
    14    12    13   ar
    15    13    14   ar
    16    14    15   ar
    17    15    16   ar
    18    15    17    1
    19    17    18    2
    20    17    19   am
    21    19    20    1
    22    20    21    1
    23    21    22    1
    24    22    23   ar
    25    23    24   ar
    26    24    25   ar
    27    25    26   ar
    28    24    27    1
    29    27    28   ar
    30    28    29   ar
    31    29    30   ar
    32    30    31   ar
    33    31    32   ar
    34    32    33   ar
    35    33    34   ar
    36    34    35   ar
    37    35    36   ar
    38     6     1   ar
    39    16    11   ar
    40    26    22   ar
    41    36    27   ar
    42    34     4    1
    43    36    31   ar
    44     7    37    1
    45    19    38    1
@<TRIPOS>MOLECULE
*****
 40 45 0 0 0
SMALL
GASTEIGER

@<TRIPOS>ATOM
      1 C         140.0593  145.8218  155.2402 C.ar    1  UNL1        0.2400
      2 N         139.7031  146.8886  156.2327 N.ar    1  UNL1       -0.2090
      3 C         139.7955  146.6061  157.7030 C.ar    1  UNL1        0.1021
      4 C         140.2075  145.3658  158.5229 C.ar    1  UNL1        0.0207
      5 C         140.2839  145.1412  157.0418 C.ar    1  UNL1        0.0221
      6 C         140.5079  144.4725  155.7179 C.ar    1  UNL1        0.1178
      7 N         140.8554  143.4321  154.6947 N.pl3   1  UNL1       -0.2104
      8 S         141.2886  142.1328  154.0832 S.O2    1  UNL1        0.0737
      9 O         140.9389  143.1865  153.0746 O.2     1  UNL1       -0.1499
     10 O         141.4408  141.6800  152.6613 O.2     1  UNL1       -0.1499
     11 C         141.8652  140.4006  154.0924 C.ar    1  UNL1        0.1253
     12 C         142.0540  139.8380  152.7148 C.ar    1  UNL1        0.0202
     13 C         142.5247  138.4245  152.5400 C.ar    1  UNL1        0.0015
     14 C         142.8067  137.5738  153.7428 C.ar    1  UNL1        0.0046
     15 C         142.6179  138.1364  155.1204 C.ar    1  UNL1        0.0547
     16 C         142.1472  139.5498  155.2951 C.ar    1  UNL1        0.0247
     17 C         142.9102  137.2546  156.2980 C.2     1  UNL1        0.2459
     18 O         143.3261  136.0075  155.5755 O.2     1  UNL1       -0.2701
     19 N         143.0656  136.7831  157.7134 N.am    1  UNL1       -0.2989
     20 C         143.0673  136.7733  159.2135 C.3     1  UNL1        0.1161
     21 C         142.9150  137.2261  160.6354 C.3     1  UNL1        0.1487
     22 N         142.6253  138.0925  161.8252 N.ar    1  UNL1       -0.2476
     23 C         142.2296  139.2786  162.6537 C.ar    1  UNL1        0.0982
     24 C         141.7707  140.6557  163.0315 C.ar    1  UNL1        0.0574
     25 C         142.0870  139.7020  164.1452 C.ar    1  UNL1        0.1231
     26 N         142.5202  138.4026  163.5336 N.ar    1  UNL1       -0.1676
     27 C         141.2984  142.0749  162.9175 C.ar    1  UNL1        0.0875
     28 N         141.3521  141.9085  164.4073 N.ar    1  UNL1       -0.2239
     29 C         140.9714  143.0495  165.3036 C.ar    1  UNL1        0.1988
     30 N         140.5368  144.3568  164.7100 N.ar    1  UNL1       -0.2240
     31 C         140.4830  144.5231  163.2202 C.ar    1  UNL1        0.0845
     32 C         140.0186  145.9207  162.4584 C.ar    1  UNL1        0.0192
     33 C         139.9290  146.1944  160.9863 C.ar    1  UNL1        0.0016
     34 C         140.2872  145.1219  160.0008 C.ar    1  UNL1        0.0017
     35 C         140.5141  144.4359  161.3153 C.ar    1  UNL1        0.0031
     36 C         140.8638  143.3821  162.3240 C.ar    1  UNL1        0.0355
     37 H         140.6844  143.9484  153.8741 H       1  UNL1        0.1739
     38 H         143.3721  135.8628  157.5450 H       1  UNL1        0.1498
     39 C         141.0818  146.8263  153.0733 C.3     1  UNL1        0.2543
     40 O         139.9668  146.1043  153.7699 O.3     1  UNL1       -0.4553
@<TRIPOS>BOND
     1    39    40    1
     2    40     1    1
     3     1     2   ar
     4     2     3   ar
     5     3     4   ar
     6     4     5   ar
     7     5     6   ar
     8     6     7    1
     9     7     8    1
    10     8     9    2
    11     8    10    2
    12     8    11    1
    13    11    12   ar
    14    12    13   ar
    15    13    14   ar
    16    14    15   ar
    17    15    16   ar
    18    15    17    1
    19    17    18    2
    20    17    19   am
    21    19    20    1
    22    20    21    1
    23    21    22    1
    24    22    23   ar
    25    23    24   ar
    26    24    25   ar
    27    25    26   ar
    28    24    27    1
    29    27    28   ar
    30    28    29   ar
    31    29    30   ar
    32    30    31   ar
    33    31    32   ar
    34    32    33   ar
    35    33    34   ar
    36    34    35   ar
    37    35    36   ar
    38     6     1   ar
    39    16    11   ar
    40    26    22   ar
    41    36    27   ar
    42    34     4    1
    43    36    31   ar
    44     7    37    1
    45    19    38    1
@<TRIPOS>MOLECULE
*****
 40 45 0 0 0
SMALL
GASTEIGER

@<TRIPOS>ATOM
      1 C         143.0305  136.3262  157.7321 C.ar    1  UNL1        0.2400
      2 N         143.0815  136.2121  156.2373 N.ar    1  UNL1       -0.2090
      3 C         142.7262  137.3925  155.3824 C.ar    1  UNL1        0.1021
      4 C         142.2777  138.8349  155.6961 C.ar    1  UNL1        0.0207
      5 C         142.5178  138.0147  156.9287 C.ar    1  UNL1        0.0221
      6 C         142.6242  137.6205  158.3721 C.ar    1  UNL1        0.1178
      7 N         142.5854  137.6951  159.8697 N.pl3   1  UNL1       -0.2104
      8 S         142.4054  138.2304  161.2594 S.O2    1  UNL1        0.0737
      9 O         142.8480  136.7978  161.2181 O.2     1  UNL1       -0.1499
     10 O         142.5811  137.6147  162.6158 O.2     1  UNL1       -0.1499
     11 C         142.0030  139.4911  162.5169 C.ar    1  UNL1        0.1253
     12 C         142.1445  138.9845  163.9216 C.ar    1  UNL1        0.0202
     13 C         141.8520  139.8923  165.0793 C.ar    1  UNL1        0.0015
     14 C         141.4181  141.3067  164.8323 C.ar    1  UNL1        0.0046
     15 C         141.2765  141.8134  163.4276 C.ar    1  UNL1        0.0547
     16 C         141.5690  140.9056  162.2699 C.ar    1  UNL1        0.0247
     17 C         140.8403  143.2336  163.2215 C.2     1  UNL1        0.2459
     18 O         140.6944  143.6574  164.6530 O.2     1  UNL1       -0.2701
     19 N         140.4522  144.5144  162.5442 N.am    1  UNL1       -0.2989
     20 C         140.1541  145.5170  161.4689 C.3     1  UNL1        0.1161
     21 C         139.9784  146.1326  160.1124 C.3     1  UNL1        0.1487
     22 N         139.9442  146.2947  158.6215 N.ar    1  UNL1       -0.2476
     23 C         140.0551  145.9854  157.1580 C.ar    1  UNL1        0.0982
     24 C         140.2991  145.2387  155.8802 C.ar    1  UNL1        0.0574
     25 C         139.8589  146.6685  155.7727 C.ar    1  UNL1        0.1231
     26 N         139.6790  147.2038  157.1623 N.ar    1  UNL1       -0.1676
     27 C         140.6499  144.1350  154.9268 C.ar    1  UNL1        0.0875
     28 N         140.3176  145.2442  153.9731 N.ar    1  UNL1       -0.2239
     29 C         140.4047  145.0126  152.4937 C.ar    1  UNL1        0.1988
     30 N         140.8242  143.6717  151.9679 N.ar    1  UNL1       -0.2240
     31 C         141.1564  142.5626  152.9215 C.ar    1  UNL1        0.0845
     32 C         141.6299  141.0447  152.4512 C.ar    1  UNL1        0.0192
     33 C         141.9835  139.8695  153.3137 C.ar    1  UNL1        0.0016
     34 C         141.9298  139.9924  154.8076 C.ar    1  UNL1        0.0017
     35 C         141.5119  141.3616  154.3597 C.ar    1  UNL1        0.0031
     36 C         141.0693  142.7943  154.4009 C.ar    1  UNL1        0.0355
     37 H         142.8666  136.7765  160.0851 H       1  UNL1        0.1739
     38 H         140.2725  145.0692  163.3374 H       1  UNL1        0.1498
     39 C         143.7132  133.8287  157.9481 C.3     1  UNL1        0.2543
     40 O         143.3858  135.1458  158.5868 O.3     1  UNL1       -0.4553
@<TRIPOS>BOND
     1    39    40    1
     2    40     1    1
     3     1     2   ar
     4     2     3   ar
     5     3     4   ar
     6     4     5   ar
     7     5     6   ar
     8     6     7    1
     9     7     8    1
    10     8     9    2
    11     8    10    2
    12     8    11    1
    13    11    12   ar
    14    12    13   ar
    15    13    14   ar
    16    14    15   ar
    17    15    16   ar
    18    15    17    1
    19    17    18    2
    20    17    19   am
    21    19    20    1
    22    20    21    1
    23    21    22    1
    24    22    23   ar
    25    23    24   ar
    26    24    25   ar
    27    25    26   ar
    28    24    27    1
    29    27    28   ar
    30    28    29   ar
    31    29    30   ar
    32    30    31   ar
    33    31    32   ar
    34    32    33   ar
    35    33    34   ar
    36    34    35   ar
    37    35    36   ar
    38     6     1   ar
    39    16    11   ar
    40    26    22   ar
    41    36    27   ar
    42    34     4    1
    43    36    31   ar
    44     7    37    1
    45    19    38    1
@<TRIPOS>MOLECULE
*****
 40 45 0 0 0
SMALL
GASTEIGER

@<TRIPOS>ATOM
      1 C         142.9435  136.7605  156.3834 C.ar    1  UNL1        0.2400
      2 N         143.1810  135.9265  157.6073 N.ar    1  UNL1       -0.2090
      3 C         142.9818  136.5208  158.9701 C.ar    1  UNL1        0.1021
      4 C         142.5506  137.9159  159.4682 C.ar    1  UNL1        0.0207
      5 C         142.6006  137.8173  157.9723 C.ar    1  UNL1        0.0221
      6 C         142.5069  138.1887  156.5221 C.ar    1  UNL1        0.1178
      7 N         142.2796  138.9902  155.2747 N.pl3   1  UNL1       -0.2104
      8 S         141.9434  140.1348  154.3653 S.O2    1  UNL1        0.0737
      9 O         142.3344  138.8823  153.6384 O.2     1  UNL1       -0.1499
     10 O         141.9213  140.2730  152.8719 O.2     1  UNL1       -0.1499
     11 C         141.4304  141.8382  153.9555 C.ar    1  UNL1        0.1253
     12 C         141.3723  142.0940  152.4786 C.ar    1  UNL1        0.0202
     13 C         140.9680  143.4447  151.9668 C.ar    1  UNL1        0.0015
     14 C         140.6219  144.5397  152.9318 C.ar    1  UNL1        0.0046
     15 C         140.6800  144.2839  154.4086 C.ar    1  UNL1        0.0547
     16 C         141.0843  142.9332  154.9205 C.ar    1  UNL1        0.0247
     17 C         140.3266  145.4040  155.3416 C.2     1  UNL1        0.2459
     18 O         140.0146  146.4732  154.3369 O.2     1  UNL1       -0.2701
     19 N         140.0759  146.1721  156.6053 N.am    1  UNL1       -0.2989
     20 C         139.9551  146.5051  158.0630 C.3     1  UNL1        0.1161
     21 C         139.9772  146.3667  159.5565 C.3     1  UNL1        0.1487
     22 N         140.1399  145.7722  160.9240 N.ar    1  UNL1       -0.2476
     23 C         140.4255  144.7857  162.0172 C.ar    1  UNL1        0.0982
     24 C         140.8031  143.5143  162.7179 C.ar    1  UNL1        0.0574
     25 C         140.4335  144.6912  163.5712 C.ar    1  UNL1        0.1231
     26 N         140.0973  145.8358  162.6618 N.ar    1  UNL1       -0.1676
     27 C         141.2318  142.0957  162.9500 C.ar    1  UNL1        0.0875
     28 N         141.0655  142.5802  164.3598 N.ar    1  UNL1       -0.2239
     29 C         141.3325  141.6527  165.5080 C.ar    1  UNL1        0.1988
     30 N         141.7658  140.2406  165.2464 N.ar    1  UNL1       -0.2240
     31 C         141.9321  139.7561  163.8366 C.ar    1  UNL1        0.0845
     32 C         142.4053  138.2191  163.4329 C.ar    1  UNL1        0.0192
     33 C         142.6020  137.6329  162.0663 C.ar    1  UNL1        0.0016
     34 C         142.3623  138.4740  160.8477 C.ar    1  UNL1        0.0017
     35 C         142.0560  139.4312  161.9614 C.ar    1  UNL1        0.0031
     36 C         141.6651  140.6837  162.6884 C.ar    1  UNL1        0.0355
     37 H         142.4968  138.3062  154.6008 H       1  UNL1        0.1739
     38 H         139.8170  147.0398  156.2189 H       1  UNL1        0.1498
     39 C         142.9846  134.6885  154.8165 C.3     1  UNL1        0.2543
     40 O         143.1426  136.1660  155.0206 O.3     1  UNL1       -0.4553
@<TRIPOS>BOND
     1    39    40    1
     2    40     1    1
     3     1     2   ar
     4     2     3   ar
     5     3     4   ar
     6     4     5   ar
     7     5     6   ar
     8     6     7    1
     9     7     8    1
    10     8     9    2
    11     8    10    2
    12     8    11    1
    13    11    12   ar
    14    12    13   ar
    15    13    14   ar
    16    14    15   ar
    17    15    16   ar
    18    15    17    1
    19    17    18    2
    20    17    19   am
    21    19    20    1
    22    20    21    1
    23    21    22    1
    24    22    23   ar
    25    23    24   ar
    26    24    25   ar
    27    25    26   ar
    28    24    27    1
    29    27    28   ar
    30    28    29   ar
    31    29    30   ar
    32    30    31   ar
    33    31    32   ar
    34    32    33   ar
    35    33    34   ar
    36    34    35   ar
    37    35    36   ar
    38     6     1   ar
    39    16    11   ar
    40    26    22   ar
    41    36    27   ar
    42    34     4    1
    43    36    31   ar
    44     7    37    1
    45    19    38    1
@<TRIPOS>MOLECULE
*****
 40 45 0 0 0
SMALL
GASTEIGER

@<TRIPOS>ATOM
      1 C         143.8938  140.3304  161.8468 C.ar    1  UNL1        0.2400
      2 N         144.4034  138.9443  162.1096 N.ar    1  UNL1       -0.2090
      3 C         144.1370  137.8474  161.1216 C.ar    1  UNL1        0.1021
      4 C         143.3948  137.7918  159.7702 C.ar    1  UNL1        0.0207
      5 C         143.3840  139.1582  160.3890 C.ar    1  UNL1        0.0221
      6 C         143.1179  140.6197  160.5962 C.ar    1  UNL1        0.1178
      7 N         142.6251  142.0182  160.3692 N.pl3   1  UNL1       -0.2104
      8 S         141.9591  143.2020  159.7326 S.O2    1  UNL1        0.0737
      9 O         142.6134  143.5128  161.0461 O.2     1  UNL1       -0.1499
     10 O         141.8188  144.6354  160.1513 O.2     1  UNL1       -0.1499
     11 C         141.0088  144.0836  158.4472 C.ar    1  UNL1        0.1253
     12 C         140.8048  145.5361  158.7612 C.ar    1  UNL1        0.0202
     13 C         140.0432  146.4095  157.8088 C.ar    1  UNL1        0.0015
     14 C         139.4855  145.8305  156.5425 C.ar    1  UNL1        0.0046
     15 C         139.6894  144.3780  156.2285 C.ar    1  UNL1        0.0547
     16 C         140.4511  143.5046  157.1808 C.ar    1  UNL1        0.0247
     17 C         139.1166  143.8361  154.9525 C.2     1  UNL1        0.2459
     18 O         138.4877  145.0867  154.4134 O.2     1  UNL1       -0.2701
     19 N         138.7507  142.8826  153.8539 N.am    1  UNL1       -0.2989
     20 C         138.6315  141.6207  153.0518 C.3     1  UNL1        0.1161
     21 C         138.7719  140.1871  152.6331 C.3     1  UNL1        0.1487
     22 N         139.1566  138.7373  152.6431 N.ar    1  UNL1       -0.2476
     23 C         139.7440  137.4284  153.0809 C.ar    1  UNL1        0.0982
     24 C         140.4703  136.4021  153.8988 C.ar    1  UNL1        0.0574
     25 C         139.8629  135.9512  152.6036 C.ar    1  UNL1        0.1231
     26 N         139.1970  137.1350  151.9670 N.ar    1  UNL1       -0.1676
     27 C         141.2571  135.7698  155.0085 C.ar    1  UNL1        0.0875
     28 N         141.0528  134.5968  154.0960 N.ar    1  UNL1       -0.2239
     29 C         141.6103  133.2539  154.4646 C.ar    1  UNL1        0.1988
     30 N         142.3721  133.0840  155.7456 N.ar    1  UNL1       -0.2240
     31 C         142.5763  134.2569  156.6580 C.ar    1  UNL1        0.0845
     32 C         143.4004  134.1828  158.0949 C.ar    1  UNL1        0.0192
     33 C         143.6622  135.2856  159.0774 C.ar    1  UNL1        0.0016
     34 C         143.1489  136.6688  158.8067 C.ar    1  UNL1        0.0017
     35 C         142.6731  135.9107  157.6030 C.ar    1  UNL1        0.0031
     36 C         142.0188  135.5998  156.2894 C.ar    1  UNL1        0.0355
     37 H         142.9704  142.4462  161.1857 H       1  UNL1        0.1739
     38 H         138.2589  143.4974  153.2628 H       1  UNL1        0.1498
     39 C         145.5714  141.7806  163.2005 C.3     1  UNL1        0.2543
     40 O         144.1603  141.4272  162.8348 O.3     1  UNL1       -0.4553
@<TRIPOS>BOND
     1    39    40    1
     2    40     1    1
     3     1     2   ar
     4     2     3   ar
     5     3     4   ar
     6     4     5   ar
     7     5     6   ar
     8     6     7    1
     9     7     8    1
    10     8     9    2
    11     8    10    2
    12     8    11    1
    13    11    12   ar
    14    12    13   ar
    15    13    14   ar
    16    14    15   ar
    17    15    16   ar
    18    15    17    1
    19    17    18    2
    20    17    19   am
    21    19    20    1
    22    20    21    1
    23    21    22    1
    24    22    23   ar
    25    23    24   ar
    26    24    25   ar
    27    25    26   ar
    28    24    27    1
    29    27    28   ar
    30    28    29   ar
    31    29    30   ar
    32    30    31   ar
    33    31    32   ar
    34    32    33   ar
    35    33    34   ar
    36    34    35   ar
    37    35    36   ar
    38     6     1   ar
    39    16    11   ar
    40    26    22   ar
    41    36    27   ar
    42    34     4    1
    43    36    31   ar
    44     7    37    1
    45    19    38    1
@<TRIPOS>MOLECULE
*****
 40 45 0 0 0
SMALL
GASTEIGER

@<TRIPOS>ATOM
      1 C         142.7517  139.5615  162.2453 C.ar    1  UNL1        0.2400
      2 N         142.4679  140.8895  162.8824 N.ar    1  UNL1       -0.2090
      3 C         141.9619  142.0288  162.0481 C.ar    1  UNL1        0.1021
      4 C         141.6301  142.1828  160.5493 C.ar    1  UNL1        0.0207
      5 C         142.1164  140.8088  160.9037 C.ar    1  UNL1        0.0221
      6 C         142.5296  139.3727  160.7739 C.ar    1  UNL1        0.1178
      7 N         142.8249  138.0301  160.1738 N.pl3   1  UNL1       -0.2104
      8 S         142.9703  136.9265  159.1684 S.O2    1  UNL1        0.0737
      9 O         143.3568  136.5272  160.5615 O.2     1  UNL1       -0.1499
     10 O         143.4263  135.5021  159.2823 O.2     1  UNL1       -0.1499
     11 C         142.8877  136.1645  157.5114 C.ar    1  UNL1        0.1253
     12 C         143.3238  134.7293  157.5034 C.ar    1  UNL1        0.0202
     13 C         143.3175  133.9508  156.2213 C.ar    1  UNL1        0.0015
     14 C         142.8751  134.6073  154.9473 C.ar    1  UNL1        0.0046
     15 C         142.4391  136.0425  154.9553 C.ar    1  UNL1        0.0547
     16 C         142.4453  136.8211  156.2373 C.ar    1  UNL1        0.0247
     17 C         142.0037  136.6636  153.6612 C.2     1  UNL1        0.2459
     18 O         142.1887  135.4878  152.7484 O.2     1  UNL1       -0.2701
     19 N         141.5075  137.6717  152.6676 N.am    1  UNL1       -0.2989
     20 C         141.0040  138.9578  152.0821 C.3     1  UNL1        0.1161
     21 C         140.5481  140.3823  151.9682 C.3     1  UNL1        0.1487
     22 N         140.1889  141.7909  152.3382 N.ar    1  UNL1       -0.2476
     23 C         139.9655  143.0309  153.1522 C.ar    1  UNL1        0.0982
     24 C         139.9021  143.9680  154.3216 C.ar    1  UNL1        0.0574
     25 C         139.4849  144.5021  152.9835 C.ar    1  UNL1        0.1231
     26 N         139.6303  143.3985  151.9781 N.ar    1  UNL1       -0.1676
     27 C         140.0055  144.5006  155.7201 C.ar    1  UNL1        0.0875
     28 N         139.4983  145.7083  154.9891 N.ar    1  UNL1       -0.2239
     29 C         139.2501  146.9865  155.7340 C.ar    1  UNL1        0.1988
     30 N         139.5092  147.0569  157.2098 N.ar    1  UNL1       -0.2240
     31 C         140.0163  145.8492  157.9407 C.ar    1  UNL1        0.0845
     32 C         140.3359  145.8150  159.5674 C.ar    1  UNL1        0.0192
     33 C         140.8421  144.6703  160.3941 C.ar    1  UNL1        0.0016
     34 C         141.1233  143.3458  159.7488 C.ar    1  UNL1        0.0017
     35 C         140.6511  144.1717  158.5891 C.ar    1  UNL1        0.0031
     36 C         140.2645  144.5711  157.1959 C.ar    1  UNL1        0.0355
     37 H         143.1237  137.5536  160.9818 H       1  UNL1        0.1739
     38 H         141.5217  137.1178  151.8538 H       1  UNL1        0.1498
     39 C         142.9665  138.3827  164.5506 C.3     1  UNL1        0.2543
     40 O         143.2576  138.4222  163.0797 O.3     1  UNL1       -0.4553
@<TRIPOS>BOND
     1    39    40    1
     2    40     1    1
     3     1     2   ar
     4     2     3   ar
     5     3     4   ar
     6     4     5   ar
     7     5     6   ar
     8     6     7    1
     9     7     8    1
    10     8     9    2
    11     8    10    2
    12     8    11    1
    13    11    12   ar
    14    12    13   ar
    15    13    14   ar
    16    14    15   ar
    17    15    16   ar
    18    15    17    1
    19    17    18    2
    20    17    19   am
    21    19    20    1
    22    20    21    1
    23    21    22    1
    24    22    23   ar
    25    23    24   ar
    26    24    25   ar
    27    25    26   ar
    28    24    27    1
    29    27    28   ar
    30    28    29   ar
    31    29    30   ar
    32    30    31   ar
    33    31    32   ar
    34    32    33   ar
    35    33    34   ar
    36    34    35   ar
    37    35    36   ar
    38     6     1   ar
    39    16    11   ar
    40    26    22   ar
    41    36    27   ar
    42    34     4    1
    43    36    31   ar
    44     7    37    1
    45    19    38    1
@<TRIPOS>MOLECULE
*****
 40 45 0 0 0
SMALL
GASTEIGER

@<TRIPOS>ATOM
      1 C         138.1125  143.6969  153.8579 C.ar    1  UNL1        0.2400
      2 N         138.0718  144.9765  154.6397 N.ar    1  UNL1       -0.2090
      3 C         138.7230  145.0519  155.9890 C.ar    1  UNL1        0.1021
      4 C         139.4994  144.0361  156.8524 C.ar    1  UNL1        0.0207
      5 C         139.0379  143.4627  155.5455 C.ar    1  UNL1        0.0221
      6 C         138.8041  142.4929  154.4253 C.ar    1  UNL1        0.1178
      7 N         138.8233  141.2319  153.6132 N.pl3   1  UNL1       -0.2104
      8 S         139.0934  139.8162  153.1973 S.O2    1  UNL1        0.0737
      9 O         138.3185  140.6046  152.1836 O.2     1  UNL1       -0.1499
     10 O         138.7410  139.0340  151.9670 O.2     1  UNL1       -0.1499
     11 C         139.7582  138.1261  153.3833 C.ar    1  UNL1        0.1253
     12 C         139.4640  137.2471  152.2040 C.ar    1  UNL1        0.0202
     13 C         139.9391  135.8244  152.1920 C.ar    1  UNL1        0.0015
     14 C         140.7083  135.2807  153.3593 C.ar    1  UNL1        0.0046
     15 C         141.0025  136.1597  154.5386 C.ar    1  UNL1        0.0547
     16 C         140.5274  137.5824  154.5506 C.ar    1  UNL1        0.0247
     17 C         141.7743  135.5797  155.6866 C.2     1  UNL1        0.2459
     18 O         141.9835  134.1886  155.1657 O.2     1  UNL1       -0.2701
     19 N         142.4773  135.4574  157.0059 N.am    1  UNL1       -0.2989
     20 C         143.0353  135.8063  158.3539 C.3     1  UNL1        0.1161
     21 C         143.3878  136.5887  159.5843 C.3     1  UNL1        0.1487
     22 N         143.4966  137.7195  160.5638 N.ar    1  UNL1       -0.2476
     23 C         143.3499  139.0763  161.1862 C.ar    1  UNL1        0.0982
     24 C         142.9636  140.5121  161.3842 C.ar    1  UNL1        0.0574
     25 C         143.7393  139.8465  162.4821 C.ar    1  UNL1        0.1231
     26 N         144.0094  138.4309  162.0662 N.ar    1  UNL1       -0.1676
     27 C         142.3796  141.8714  161.1362 C.ar    1  UNL1        0.0875
     28 N         142.9936  142.0650  162.4911 N.ar    1  UNL1       -0.2239
     29 C         142.8892  143.3939  163.1789 C.ar    1  UNL1        0.1988
     30 N         142.1707  144.5292  162.5118 N.ar    1  UNL1       -0.2240
     31 C         141.5568  144.3356  161.1570 C.ar    1  UNL1        0.0845
     32 C         140.7417  145.5189  160.3295 C.ar    1  UNL1        0.0192
     33 C         140.0932  145.4346  158.9795 C.ar    1  UNL1        0.0016
     34 C         140.1386  144.1511  158.2046 C.ar    1  UNL1        0.0017
     35 C         140.8862  143.7951  159.4553 C.ar    1  UNL1        0.0031
     36 C         141.6612  143.0067  160.4692 C.ar    1  UNL1        0.0355
     37 H         138.3230  141.5401  152.8234 H       1  UNL1        0.1739
     38 H         142.7664  134.5180  156.9491 H       1  UNL1        0.1498
     39 C         135.9660  143.5818  152.3987 C.3     1  UNL1        0.2543
     40 O         137.4613  143.6216  152.5087 O.3     1  UNL1       -0.4553
@<TRIPOS>BOND
     1    39    40    1
     2    40     1    1
     3     1     2   ar
     4     2     3   ar
     5     3     4   ar
     6     4     5   ar
     7     5     6   ar
     8     6     7    1
     9     7     8    1
    10     8     9    2
    11     8    10    2
    12     8    11    1
    13    11    12   ar
    14    12    13   ar
    15    13    14   ar
    16    14    15   ar
    17    15    16   ar
    18    15    17    1
    19    17    18    2
    20    17    19   am
    21    19    20    1
    22    20    21    1
    23    21    22    1
    24    22    23   ar
    25    23    24   ar
    26    24    25   ar
    27    25    26   ar
    28    24    27    1
    29    27    28   ar
    30    28    29   ar
    31    29    30   ar
    32    30    31   ar
    33    31    32   ar
    34    32    33   ar
    35    33    34   ar
    36    34    35   ar
    37    35    36   ar
    38     6     1   ar
    39    16    11   ar
    40    26    22   ar
    41    36    27   ar
    42    34     4    1
    43    36    31   ar
    44     7    37    1
    45    19    38    1
@<TRIPOS>MOLECULE
*****
 40 45 0 0 0
SMALL
GASTEIGER

@<TRIPOS>ATOM
      1 C         143.0074  143.2981  161.7318 C.ar    1  UNL1        0.2400
      2 N         143.6920  142.1990  162.4891 N.ar    1  UNL1       -0.2090
      3 C         143.7369  140.8116  161.9206 C.ar    1  UNL1        0.1021
      4 C         143.1985  140.1779  160.6210 C.ar    1  UNL1        0.0207
      5 C         142.8884  141.6413  160.7317 C.ar    1  UNL1        0.0221
      6 C         142.3677  143.0098  160.4061 C.ar    1  UNL1        0.1178
      7 N         141.6928  144.1351  159.6792 N.pl3   1  UNL1       -0.2104
      8 S         140.9369  144.8952  158.6301 S.O2    1  UNL1        0.0737
      9 O         141.3536  145.7358  159.8003 O.2     1  UNL1       -0.1499
     10 O         140.5158  146.3307  158.5211 O.2     1  UNL1       -0.1499
     11 C         140.0368  145.1101  157.0563 C.ar    1  UNL1        0.1253
     12 C         139.5643  146.5169  156.8383 C.ar    1  UNL1        0.0202
     13 C         138.8060  146.8688  155.5928 C.ar    1  UNL1        0.0015
     14 C         138.5203  145.8139  154.5655 C.ar    1  UNL1        0.0046
     15 C         138.9928  144.4071  154.7835 C.ar    1  UNL1        0.0547
     16 C         139.7511  144.0552  156.0290 C.ar    1  UNL1        0.0247
     17 C         138.6876  143.3806  153.7333 C.2     1  UNL1        0.2459
     18 O         137.9445  144.2414  152.7552 O.2     1  UNL1       -0.2701
     19 N         138.6270  142.0707  153.0050 N.am    1  UNL1       -0.2989
     20 C         138.8176  140.6192  152.6776 C.3     1  UNL1        0.1161
     21 C         139.2388  139.1837  152.7866 C.3     1  UNL1        0.1487
     22 N         139.8448  137.9195  153.3201 N.ar    1  UNL1       -0.2476
     23 C         140.5701  136.9638  154.2204 C.ar    1  UNL1        0.0982
     24 C         141.3360  136.4200  155.3898 C.ar    1  UNL1        0.0574
     25 C         140.9850  135.4647  154.2879 C.ar    1  UNL1        0.1231
     26 N         140.2291  136.2249  153.2387 N.ar    1  UNL1       -0.1676
     27 C         142.0596  136.3471  156.7018 C.ar    1  UNL1        0.0875
     28 N         142.1674  134.9258  156.2345 N.ar    1  UNL1       -0.2239
     29 C         142.8780  133.9104  157.0795 C.ar    1  UNL1        0.1988
     30 N         143.4808  134.3163  158.3917 N.ar    1  UNL1       -0.2240
     31 C         143.3729  135.7376  158.8590 C.ar    1  UNL1        0.0845
     32 C         144.0007  136.2949  160.2889 C.ar    1  UNL1        0.0192
     33 C         143.9511  137.6851  160.8499 C.ar    1  UNL1        0.0016
     34 C         143.2644  138.7781  160.0859 C.ar    1  UNL1        0.0017
     35 C         143.0790  137.5937  159.1843 C.ar    1  UNL1        0.0031
     36 C         142.6623  136.7530  158.0140 C.ar    1  UNL1        0.0355
     37 H         141.8544  144.8631  160.3220 H       1  UNL1        0.1739
     38 H         138.1262  142.3527  152.2057 H       1  UNL1        0.1498
     39 C         141.9021  145.0545  163.2948 C.3     1  UNL1        0.2543
     40 O         142.9626  144.6854  162.3003 O.3     1  UNL1       -0.4553
@<TRIPOS>BOND
     1    39    40    1
     2    40     1    1
     3     1     2   ar
     4     2     3   ar
     5     3     4   ar
     6     4     5   ar
     7     5     6   ar
     8     6     7    1
     9     7     8    1
    10     8     9    2
    11     8    10    2
    12     8    11    1
    13    11    12   ar
    14    12    13   ar
    15    13    14   ar
    16    14    15   ar
    17    15    16   ar
    18    15    17    1
    19    17    18    2
    20    17    19   am
    21    19    20    1
    22    20    21    1
    23    21    22    1
    24    22    23   ar
    25    23    24   ar
    26    24    25   ar
    27    25    26   ar
    28    24    27    1
    29    27    28   ar
    30    28    29   ar
    31    29    30   ar
    32    30    31   ar
    33    31    32   ar
    34    32    33   ar
    35    33    34   ar
    36    34    35   ar
    37    35    36   ar
    38     6     1   ar
    39    16    11   ar
    40    26    22   ar
    41    36    27   ar
    42    34     4    1
    43    36    31   ar
    44     7    37    1
    45    19    38    1
