@<TRIPOS>MOLECULE
*****
 35 39 0 0 0
SMALL
GASTEIGER

@<TRIPOS>ATOM
      1 N         141.9719  138.0662  158.2979 N.3     1  UNL1       -0.2689
      2 C         142.9789  138.1756  159.4042 C.3     1  UNL1        0.0741
      3 C         142.5442  138.6039  160.7745 C.3     1  UNL1        0.0369
      4 C         141.1024  138.9228  161.0383 C.3     1  UNL1        0.0747
      5 C         140.0954  138.8134  159.9320 C.3     1  UNL1        0.0369
      6 C         140.5302  138.3851  158.5618 C.3     1  UNL1        0.0741
      7 N         140.6676  139.3511  162.4086 N.am    1  UNL1       -0.2999
      8 C         140.4993  138.3307  163.4951 C.2     1  UNL1        0.2806
      9 O         140.7658  136.8821  163.2114 O.2     1  UNL1       -0.2668
     10 H         140.4928  140.3019  162.5948 H       1  UNL1        0.1498
     11 C         140.0645  138.7590  164.8654 C.ar    1  UNL1        0.2014
     12 C         138.7557  138.2808  165.4204 C.ar    1  UNL1        0.0843
     13 C         138.3208  138.7091  166.7907 C.ar    1  UNL1        0.2018
     14 O         137.0120  138.2309  167.3458 O.2     1  UNL1       -0.2864
     15 C         139.1949  139.6155  167.6058 C.ar    1  UNL1        0.0737
     16 C         138.7601  140.0437  168.9761 C.ar    1  UNL1        0.0085
     17 C         139.6342  140.9501  169.7912 C.ar    1  UNL1        0.0299
     18 C         140.9431  141.4282  169.2361 C.ar    1  UNL1        0.1432
     19 F         141.8172  142.3346  170.0512 F       1  UNL1       -0.2041
     20 C         141.3780  141.0000  167.8658 C.ar    1  UNL1        0.0672
     21 C         140.5039  140.0936  167.0507 C.ar    1  UNL1        0.1508
     22 O         140.9386  139.6654  165.6805 O.2     1  UNL1       -0.4486
     23 C         142.4067  137.6379  156.9276 C.3     1  UNL1        0.0992
     24 O         144.4170  130.1740  157.9269 O.2     1  UNL1       -0.2707
     25 C         143.6382  131.2219  157.1884 C.2     1  UNL1        0.2707
     26 C         142.7507  130.8297  156.0445 C.3     1  UNL1        0.2897
     27 O         141.9719  131.8776  155.3060 O.3     1  UNL1       -0.4643
     28 C         142.0806  133.3177  155.7114 C.ar    1  UNL1        0.1526
     29 C         141.3018  134.3656  154.9729 C.ar    1  UNL1        0.0379
     30 C         141.4105  135.8056  155.3783 C.ar    1  UNL1        0.0003
     31 C         142.2980  136.1978  156.5222 C.ar    1  UNL1       -0.0047
     32 C         143.0768  135.1499  157.2608 C.ar    1  UNL1        0.0148
     33 C         142.9681  133.7098  156.8553 C.ar    1  UNL1        0.0846
     34 N         143.7469  132.6619  157.5938 N.am    1  UNL1       -0.2785
     35 H         144.3294  132.9193  158.3446 H       1  UNL1        0.1551
@<TRIPOS>BOND
     1    24    25    2
     2    25    26    1
     3    26    27    1
     4    27    28    1
     5    28    29   ar
     6    29    30   ar
     7    30    31   ar
     8    31    23    1
     9    23     1    1
    10     1     2    1
    11     2     3    1
    12     3     4    1
    13     4     7    1
    14     7     8   am
    15     8     9    2
    16     8    11    1
    17    11    12   ar
    18    12    13   ar
    19    13    14    2
    20    13    15   ar
    21    15    16   ar
    22    16    17   ar
    23    17    18   ar
    24    18    19    1
    25    18    20   ar
    26    20    21   ar
    27    21    22   ar
    28     4     5    1
    29     5     6    1
    30    31    32   ar
    31    32    33   ar
    32    33    34    1
    33    34    25   am
    34    33    28   ar
    35     6     1    1
    36    22    11   ar
    37    21    15   ar
    38     7    10    1
    39    34    35    1
@<TRIPOS>MOLECULE
*****
 35 39 0 0 0
SMALL
GASTEIGER

@<TRIPOS>ATOM
      1 N         142.8626  140.5353  163.3368 N.3     1  UNL1       -0.2689
      2 C         144.1388  140.1094  162.6735 C.3     1  UNL1        0.0741
      3 C         144.1113  139.0710  161.5915 C.3     1  UNL1        0.0369
      4 C         142.8077  138.4585  161.1727 C.3     1  UNL1        0.0747
      5 C         141.5315  138.8845  161.8360 C.3     1  UNL1        0.0369
      6 C         141.5590  139.9229  162.9180 C.3     1  UNL1        0.0741
      7 N         142.7802  137.4201  160.0905 N.am    1  UNL1       -0.2999
      8 C         142.4856  137.8196  158.6750 C.2     1  UNL1        0.2806
      9 O         142.2186  139.2576  158.3417 O.2     1  UNL1       -0.2668
     10 H         142.9554  136.4764  160.3094 H       1  UNL1        0.1498
     11 C         142.4581  136.7812  157.5929 C.ar    1  UNL1        0.2014
     12 C         141.5896  136.9787  156.3860 C.ar    1  UNL1        0.0843
     13 C         141.5621  135.9403  155.3038 C.ar    1  UNL1        0.2018
     14 O         140.6936  136.1378  154.0969 O.2     1  UNL1       -0.2864
     15 C         142.4030  134.7045  155.4286 C.ar    1  UNL1        0.0737
     16 C         142.3755  133.6661  154.3465 C.ar    1  UNL1        0.0085
     17 C         143.2164  132.4303  154.4713 C.ar    1  UNL1        0.0299
     18 C         144.0849  132.2329  155.6783 C.ar    1  UNL1        0.1432
     19 F         144.9259  130.9971  155.8031 F       1  UNL1       -0.2041
     20 C         144.1125  133.2713  156.7605 C.ar    1  UNL1        0.0672
     21 C         143.2715  134.5071  156.6356 C.ar    1  UNL1        0.1508
     22 O         143.2990  135.5454  157.7177 O.2     1  UNL1       -0.4486
     23 C         142.8901  141.5738  164.4190 C.3     1  UNL1        0.0992
     24 O         139.3345  143.3595  171.1211 O.2     1  UNL1       -0.2707
     25 C         140.1293  142.3978  170.2882 C.2     1  UNL1        0.2707
     26 C         140.5335  141.0699  170.8565 C.3     1  UNL1        0.2897
     27 O         141.3283  140.1082  170.0236 O.3     1  UNL1       -0.4643
     28 C         141.7187  140.4746  168.6225 C.ar    1  UNL1        0.1526
     29 C         142.5135  139.5130  167.7896 C.ar    1  UNL1        0.0379
     30 C         142.9039  139.8794  166.3885 C.ar    1  UNL1        0.0003
     31 C         142.4997  141.2074  165.8201 C.ar    1  UNL1       -0.0047
     32 C         141.7049  142.1690  166.6530 C.ar    1  UNL1        0.0148
     33 C         141.3145  141.8026  168.0542 C.ar    1  UNL1        0.0846
     34 N         140.5197  142.7642  168.8871 N.am    1  UNL1       -0.2785
     35 H         140.2544  143.6358  168.5141 H       1  UNL1        0.1551
@<TRIPOS>BOND
     1    24    25    2
     2    25    26    1
     3    26    27    1
     4    27    28    1
     5    28    29   ar
     6    29    30   ar
     7    30    31   ar
     8    31    23    1
     9    23     1    1
    10     1     2    1
    11     2     3    1
    12     3     4    1
    13     4     7    1
    14     7     8   am
    15     8     9    2
    16     8    11    1
    17    11    12   ar
    18    12    13   ar
    19    13    14    2
    20    13    15   ar
    21    15    16   ar
    22    16    17   ar
    23    17    18   ar
    24    18    19    1
    25    18    20   ar
    26    20    21   ar
    27    21    22   ar
    28     4     5    1
    29     5     6    1
    30    31    32   ar
    31    32    33   ar
    32    33    34    1
    33    34    25   am
    34    33    28   ar
    35     6     1    1
    36    22    11   ar
    37    21    15   ar
    38     7    10    1
    39    34    35    1
@<TRIPOS>MOLECULE
*****
 35 39 0 0 0
SMALL
GASTEIGER

@<TRIPOS>ATOM
      1 N         142.9662  140.6023  162.4862 N.3     1  UNL1       -0.2689
      2 C         144.1221  139.6805  162.2332 C.3     1  UNL1        0.0741
      3 C         143.9871  138.5627  161.2421 C.3     1  UNL1        0.0369
      4 C         142.6961  138.3668  160.5040 C.3     1  UNL1        0.0747
      5 C         141.5401  139.2886  160.7570 C.3     1  UNL1        0.0369
      6 C         141.6752  140.4064  161.7481 C.3     1  UNL1        0.0741
      7 N         142.5610  137.2490  159.5128 N.am    1  UNL1       -0.2999
      8 C         142.8634  137.4910  158.0637 C.2     1  UNL1        0.2806
      9 O         143.3009  138.8508  157.6057 O.2     1  UNL1       -0.2668
     10 H         142.2739  136.3566  159.8134 H       1  UNL1        0.1498
     11 C         142.7284  136.3733  157.0725 C.ar    1  UNL1        0.2014
     12 C         141.7417  136.4832  155.9481 C.ar    1  UNL1        0.0843
     13 C         141.6066  135.3654  154.9569 C.ar    1  UNL1        0.2018
     14 O         140.6200  135.4754  153.8324 O.2     1  UNL1       -0.2864
     15 C         142.4582  134.1378  155.0902 C.ar    1  UNL1        0.0737
     16 C         142.3231  133.0201  154.0990 C.ar    1  UNL1        0.0085
     17 C         143.1747  131.7925  154.2323 C.ar    1  UNL1        0.0299
     18 C         144.1613  131.6826  155.3567 C.ar    1  UNL1        0.1432
     19 F         145.0129  130.4549  155.4900 F       1  UNL1       -0.2041
     20 C         144.2964  132.8003  156.3480 C.ar    1  UNL1        0.0672
     21 C         143.4449  134.0279  156.2147 C.ar    1  UNL1        0.1508
     22 O         143.5799  135.1457  157.2058 O.2     1  UNL1       -0.4486
     23 C         143.1013  141.7201  163.4774 C.3     1  UNL1        0.0992
     24 O         143.0511  137.8689  170.2535 O.2     1  UNL1       -0.2707
     25 C         142.5431  138.9854  169.3901 C.2     1  UNL1        0.2707
     26 C         141.5105  139.9345  169.9218 C.3     1  UNL1        0.2897
     27 O         141.0026  141.0510  169.0584 O.3     1  UNL1       -0.4643
     28 C         141.5272  141.2183  167.6631 C.ar    1  UNL1        0.1526
     29 C         141.0193  142.3347  166.7997 C.ar    1  UNL1        0.0379
     30 C         141.5439  142.5020  165.4045 C.ar    1  UNL1        0.0003
     31 C         142.5766  141.5528  164.8726 C.ar    1  UNL1       -0.0047
     32 C         143.0846  140.4364  165.7361 C.ar    1  UNL1        0.0148
     33 C         142.5598  140.2691  167.1314 C.ar    1  UNL1        0.0846
     34 N         143.0678  139.1527  167.9948 N.am    1  UNL1       -0.2785
     35 H         143.7455  138.5297  167.6458 H       1  UNL1        0.1551
@<TRIPOS>BOND
     1    24    25    2
     2    25    26    1
     3    26    27    1
     4    27    28    1
     5    28    29   ar
     6    29    30   ar
     7    30    31   ar
     8    31    23    1
     9    23     1    1
    10     1     2    1
    11     2     3    1
    12     3     4    1
    13     4     7    1
    14     7     8   am
    15     8     9    2
    16     8    11    1
    17    11    12   ar
    18    12    13   ar
    19    13    14    2
    20    13    15   ar
    21    15    16   ar
    22    16    17   ar
    23    17    18   ar
    24    18    19    1
    25    18    20   ar
    26    20    21   ar
    27    21    22   ar
    28     4     5    1
    29     5     6    1
    30    31    32   ar
    31    32    33   ar
    32    33    34    1
    33    34    25   am
    34    33    28   ar
    35     6     1    1
    36    22    11   ar
    37    21    15   ar
    38     7    10    1
    39    34    35    1
@<TRIPOS>MOLECULE
*****
 35 39 0 0 0
SMALL
GASTEIGER

@<TRIPOS>ATOM
      1 N         141.0007  142.9262  163.2950 N.3     1  UNL1       -0.2689
      2 C         142.4674  143.2402  163.3031 C.3     1  UNL1        0.0741
      3 C         143.3096  142.9200  162.1039 C.3     1  UNL1        0.0369
      4 C         142.6851  142.2857  160.8966 C.3     1  UNL1        0.0747
      5 C         141.2183  141.9717  160.8885 C.3     1  UNL1        0.0369
      6 C         140.3761  142.2919  162.0877 C.3     1  UNL1        0.0741
      7 N         143.5273  141.9655  159.6974 N.am    1  UNL1       -0.2999
      8 C         143.6200  142.9430  158.5634 C.2     1  UNL1        0.2806
      9 O         142.8705  144.2407  158.6287 O.2     1  UNL1       -0.2668
     10 H         144.0192  141.1138  159.6545 H       1  UNL1        0.1498
     11 C         144.4622  142.6228  157.3641 C.ar    1  UNL1        0.2014
     12 C         143.8095  142.3350  156.0446 C.ar    1  UNL1        0.0843
     13 C         144.6517  142.0148  154.8453 C.ar    1  UNL1        0.2018
     14 O         143.9990  141.7270  153.5258 O.2     1  UNL1       -0.2864
     15 C         146.1465  141.9824  154.9656 C.ar    1  UNL1        0.0737
     16 C         146.9886  141.6622  153.7663 C.ar    1  UNL1        0.0085
     17 C         148.4834  141.6298  153.8866 C.ar    1  UNL1        0.0299
     18 C         149.1361  141.9176  155.2061 C.ar    1  UNL1        0.1432
     19 F         150.6309  141.8852  155.3264 F       1  UNL1       -0.2041
     20 C         148.2939  142.2378  156.4055 C.ar    1  UNL1        0.0672
     21 C         146.7991  142.2702  156.2852 C.ar    1  UNL1        0.1508
     22 O         145.9570  142.5904  157.4844 O.2     1  UNL1       -0.4486
     23 C         140.1584  143.2464  164.4943 C.3     1  UNL1        0.0992
     24 O         140.6632  142.2075  172.2024 O.2     1  UNL1       -0.2707
     25 C         140.5059  141.6403  170.8228 C.2     1  UNL1        0.2707
     26 C         140.3594  140.1597  170.6327 C.3     1  UNL1        0.2897
     27 O         140.2021  139.5925  169.2531 O.3     1  UNL1       -0.4643
     28 C         140.1912  140.5059  168.0634 C.ar    1  UNL1        0.1526
     29 C         140.0338  139.9387  166.6837 C.ar    1  UNL1        0.0379
     30 C         140.0229  140.8522  165.4940 C.ar    1  UNL1        0.0003
     31 C         140.1694  142.3330  165.6840 C.ar    1  UNL1       -0.0047
     32 C         140.3267  142.9002  167.0637 C.ar    1  UNL1        0.0148
     33 C         140.3376  141.9866  168.2534 C.ar    1  UNL1        0.0846
     34 N         140.4950  142.5538  169.6331 N.am    1  UNL1       -0.2785
     35 H         140.5911  143.5256  169.7578 H       1  UNL1        0.1551
@<TRIPOS>BOND
     1    24    25    2
     2    25    26    1
     3    26    27    1
     4    27    28    1
     5    28    29   ar
     6    29    30   ar
     7    30    31   ar
     8    31    23    1
     9    23     1    1
    10     1     2    1
    11     2     3    1
    12     3     4    1
    13     4     7    1
    14     7     8   am
    15     8     9    2
    16     8    11    1
    17    11    12   ar
    18    12    13   ar
    19    13    14    2
    20    13    15   ar
    21    15    16   ar
    22    16    17   ar
    23    17    18   ar
    24    18    19    1
    25    18    20   ar
    26    20    21   ar
    27    21    22   ar
    28     4     5    1
    29     5     6    1
    30    31    32   ar
    31    32    33   ar
    32    33    34    1
    33    34    25   am
    34    33    28   ar
    35     6     1    1
    36    22    11   ar
    37    21    15   ar
    38     7    10    1
    39    34    35    1
@<TRIPOS>MOLECULE
*****
 35 39 0 0 0
SMALL
GASTEIGER

@<TRIPOS>ATOM
      1 N         141.7172  138.8967  158.3066 N.3     1  UNL1       -0.2689
      2 C         142.9782  139.3888  158.9528 C.3     1  UNL1        0.0741
      3 C         142.9645  139.8260  160.3876 C.3     1  UNL1        0.0369
      4 C         141.6898  139.7710  161.1762 C.3     1  UNL1        0.0747
      5 C         140.4287  139.2789  160.5300 C.3     1  UNL1        0.0369
      6 C         140.4424  138.8417  159.0952 C.3     1  UNL1        0.0741
      7 N         141.6760  140.2082  162.6110 N.am    1  UNL1       -0.2999
      8 C         141.9954  139.2249  163.6978 C.2     1  UNL1        0.2806
      9 O         142.3286  137.8043  163.3496 O.2     1  UNL1       -0.2668
     10 H         141.4573  141.1406  162.8395 H       1  UNL1        0.1498
     11 C         141.9817  139.6620  165.1326 C.ar    1  UNL1        0.2014
     12 C         142.6399  138.8150  166.1810 C.ar    1  UNL1        0.0843
     13 C         142.6262  139.2521  167.6158 C.ar    1  UNL1        0.2018
     14 O         143.2844  138.4050  168.6642 O.2     1  UNL1       -0.2864
     15 C         141.9542  140.5363  168.0022 C.ar    1  UNL1        0.0737
     16 C         141.9404  140.9734  169.4370 C.ar    1  UNL1        0.0085
     17 C         141.2684  142.2576  169.8234 C.ar    1  UNL1        0.0299
     18 C         140.6102  143.1046  168.7751 C.ar    1  UNL1        0.1432
     19 F         139.9382  144.3888  169.1615 F       1  UNL1       -0.2041
     20 C         140.6239  142.6675  167.3402 C.ar    1  UNL1        0.0672
     21 C         141.2959  141.3833  166.9538 C.ar    1  UNL1        0.1508
     22 O         141.3097  140.9462  165.5190 O.2     1  UNL1       -0.4486
     23 C         141.7309  138.4595  156.8718 C.3     1  UNL1        0.0992
     24 O         145.1401  131.5407  157.9932 O.2     1  UNL1       -0.2707
     25 C         144.1314  132.3914  157.2800 C.2     1  UNL1        0.2707
     26 C         143.2503  131.7867  156.2275 C.3     1  UNL1        0.2897
     27 O         142.2416  132.6374  155.5143 O.3     1  UNL1       -0.4643
     28 C         142.1139  134.0929  155.8536 C.ar    1  UNL1        0.1526
     29 C         141.1052  134.9437  155.1404 C.ar    1  UNL1        0.0379
     30 C         140.9775  136.3992  155.4798 C.ar    1  UNL1        0.0003
     31 C         141.8586  137.0040  156.5324 C.ar    1  UNL1       -0.0047
     32 C         142.8673  136.1532  157.2456 C.ar    1  UNL1        0.0148
     33 C         142.9950  134.6977  156.9062 C.ar    1  UNL1        0.0846
     34 N         144.0037  133.8469  157.6194 N.am    1  UNL1       -0.2785
     35 H         144.5820  134.2438  158.3102 H       1  UNL1        0.1551
@<TRIPOS>BOND
     1    24    25    2
     2    25    26    1
     3    26    27    1
     4    27    28    1
     5    28    29   ar
     6    29    30   ar
     7    30    31   ar
     8    31    23    1
     9    23     1    1
    10     1     2    1
    11     2     3    1
    12     3     4    1
    13     4     7    1
    14     7     8   am
    15     8     9    2
    16     8    11    1
    17    11    12   ar
    18    12    13   ar
    19    13    14    2
    20    13    15   ar
    21    15    16   ar
    22    16    17   ar
    23    17    18   ar
    24    18    19    1
    25    18    20   ar
    26    20    21   ar
    27    21    22   ar
    28     4     5    1
    29     5     6    1
    30    31    32   ar
    31    32    33   ar
    32    33    34    1
    33    34    25   am
    34    33    28   ar
    35     6     1    1
    36    22    11   ar
    37    21    15   ar
    38     7    10    1
    39    34    35    1
@<TRIPOS>MOLECULE
*****
 35 39 0 0 0
SMALL
GASTEIGER

@<TRIPOS>ATOM
      1 N         140.9869  139.2576  158.1431 N.3     1  UNL1       -0.2689
      2 C         141.9777  138.8198  159.1806 C.3     1  UNL1        0.0741
      3 C         141.7205  139.1045  160.6307 C.3     1  UNL1        0.0369
      4 C         140.4724  139.8270  161.0432 C.3     1  UNL1        0.0747
      5 C         139.4815  140.2648  160.0056 C.3     1  UNL1        0.0369
      6 C         139.7388  139.9801  158.5556 C.3     1  UNL1        0.0741
      7 N         140.2151  140.1117  162.4933 N.am    1  UNL1       -0.2999
      8 C         139.8246  138.9976  163.4186 C.2     1  UNL1        0.2806
      9 O         139.6914  137.5987  162.8937 O.2     1  UNL1       -0.2668
     10 H         140.3026  141.0299  162.8378 H       1  UNL1        0.1498
     11 C         139.5673  139.2822  164.8687 C.ar    1  UNL1        0.2014
     12 C         138.5147  138.5117  165.6089 C.ar    1  UNL1        0.0843
     13 C         138.2573  138.7963  167.0591 C.ar    1  UNL1        0.2018
     14 O         137.2047  138.0257  167.7993 O.2     1  UNL1       -0.2864
     15 C         139.0527  139.8516  167.7689 C.ar    1  UNL1        0.0737
     16 C         138.7955  140.1362  169.2189 C.ar    1  UNL1        0.0085
     17 C         139.5908  141.1915  169.9287 C.ar    1  UNL1        0.0299
     18 C         140.6435  141.9620  169.1885 C.ar    1  UNL1        0.1432
     19 F         141.4389  143.0173  169.8982 F       1  UNL1       -0.2041
     20 C         140.9008  141.6774  167.7383 C.ar    1  UNL1        0.0672
     21 C         140.1055  140.6221  167.0285 C.ar    1  UNL1        0.1508
     22 O         140.3627  140.3375  165.5785 O.2     1  UNL1       -0.4486
     23 C         141.2441  138.9729  156.6929 C.3     1  UNL1        0.0992
     24 O         140.8410  131.3786  154.9857 O.2     1  UNL1       -0.2707
     25 C         141.6482  132.6322  155.1492 C.2     1  UNL1        0.2707
     26 C         143.1284  132.6081  154.9072 C.3     1  UNL1        0.2897
     27 O         143.9356  133.8617  155.0707 O.3     1  UNL1       -0.4643
     28 C         143.2628  135.1395  155.4763 C.ar    1  UNL1        0.1526
     29 C         144.0700  136.3931  155.6398 C.ar    1  UNL1        0.0379
     30 C         143.3972  137.6709  156.0454 C.ar    1  UNL1        0.0003
     31 C         141.9170  137.6951  156.2874 C.ar    1  UNL1       -0.0047
     32 C         141.1097  136.4415  156.1239 C.ar    1  UNL1        0.0148
     33 C         141.7827  135.1636  155.7183 C.ar    1  UNL1        0.0846
     34 N         140.9754  133.9100  155.5547 N.am    1  UNL1       -0.2785
     35 H         140.0039  133.9259  155.7136 H       1  UNL1        0.1551
@<TRIPOS>BOND
     1    24    25    2
     2    25    26    1
     3    26    27    1
     4    27    28    1
     5    28    29   ar
     6    29    30   ar
     7    30    31   ar
     8    31    23    1
     9    23     1    1
    10     1     2    1
    11     2     3    1
    12     3     4    1
    13     4     7    1
    14     7     8   am
    15     8     9    2
    16     8    11    1
    17    11    12   ar
    18    12    13   ar
    19    13    14    2
    20    13    15   ar
    21    15    16   ar
    22    16    17   ar
    23    17    18   ar
    24    18    19    1
    25    18    20   ar
    26    20    21   ar
    27    21    22   ar
    28     4     5    1
    29     5     6    1
    30    31    32   ar
    31    32    33   ar
    32    33    34    1
    33    34    25   am
    34    33    28   ar
    35     6     1    1
    36    22    11   ar
    37    21    15   ar
    38     7    10    1
    39    34    35    1
@<TRIPOS>MOLECULE
*****
 35 39 0 0 0
SMALL
GASTEIGER

@<TRIPOS>ATOM
      1 N         141.8152  138.4497  157.6012 N.3     1  UNL1       -0.2689
      2 C         143.0812  139.1492  157.9987 C.3     1  UNL1        0.0741
      3 C         143.1826  139.8110  159.3410 C.3     1  UNL1        0.0369
      4 C         142.0181  139.7734  160.2856 C.3     1  UNL1        0.0747
      5 C         140.7522  139.0739  159.8881 C.3     1  UNL1        0.0369
      6 C         140.6507  138.4120  158.5459 C.3     1  UNL1        0.0741
      7 N         142.1196  140.4353  161.6279 N.am    1  UNL1       -0.2999
      8 C         142.7925  139.7255  162.7652 C.2     1  UNL1        0.2806
      9 O         143.3641  138.3539  162.5601 O.2     1  UNL1       -0.2668
     10 H         141.7445  141.3355  161.7625 H       1  UNL1        0.1498
     11 C         142.8940  140.3873  164.1074 C.ar    1  UNL1        0.2014
     12 C         143.6594  141.6688  164.2558 C.ar    1  UNL1        0.0843
     13 C         143.7608  142.3307  165.5981 C.ar    1  UNL1        0.2018
     14 O         144.5262  143.6121  165.7465 O.2     1  UNL1       -0.2864
     15 C         143.0969  141.7110  166.7920 C.ar    1  UNL1        0.0737
     16 C         143.1984  142.3729  168.1342 C.ar    1  UNL1        0.0085
     17 C         142.5345  141.7532  169.3281 C.ar    1  UNL1        0.0299
     18 C         141.7691  140.4718  169.1797 C.ar    1  UNL1        0.1432
     19 F         141.1052  139.8522  170.3735 F       1  UNL1       -0.2041
     20 C         141.6676  139.8099  167.8374 C.ar    1  UNL1        0.0672
     21 C         142.3315  140.4295  166.6435 C.ar    1  UNL1        0.1508
     22 O         142.2301  139.7677  165.3013 O.2     1  UNL1       -0.4486
     23 C         141.7137  137.7878  156.2589 C.3     1  UNL1        0.0992
     24 O         145.6127  131.3573  158.3076 O.2     1  UNL1       -0.2707
     25 C         144.5401  132.0235  157.4978 C.2     1  UNL1        0.2707
     26 C         143.6946  131.2125  156.5612 C.3     1  UNL1        0.2897
     27 O         142.6220  131.8787  155.7514 O.3     1  UNL1       -0.4643
     28 C         142.3949  133.3560  155.8783 C.ar    1  UNL1        0.1526
     29 C         141.3223  134.0222  155.0685 C.ar    1  UNL1        0.0379
     30 C         141.0953  135.4994  155.1954 C.ar    1  UNL1        0.0003
     31 C         141.9408  136.3105  156.1321 C.ar    1  UNL1       -0.0047
     32 C         143.0134  135.6443  156.9418 C.ar    1  UNL1        0.0148
     33 C         143.2404  134.1670  156.8149 C.ar    1  UNL1        0.0846
     34 N         144.3130  133.5007  157.6247 N.am    1  UNL1       -0.2785
     35 H         144.8680  134.0331  158.2394 H       1  UNL1        0.1551
@<TRIPOS>BOND
     1    24    25    2
     2    25    26    1
     3    26    27    1
     4    27    28    1
     5    28    29   ar
     6    29    30   ar
     7    30    31   ar
     8    31    23    1
     9    23     1    1
    10     1     2    1
    11     2     3    1
    12     3     4    1
    13     4     7    1
    14     7     8   am
    15     8     9    2
    16     8    11    1
    17    11    12   ar
    18    12    13   ar
    19    13    14    2
    20    13    15   ar
    21    15    16   ar
    22    16    17   ar
    23    17    18   ar
    24    18    19    1
    25    18    20   ar
    26    20    21   ar
    27    21    22   ar
    28     4     5    1
    29     5     6    1
    30    31    32   ar
    31    32    33   ar
    32    33    34    1
    33    34    25   am
    34    33    28   ar
    35     6     1    1
    36    22    11   ar
    37    21    15   ar
    38     7    10    1
    39    34    35    1
@<TRIPOS>MOLECULE
*****
 35 39 0 0 0
SMALL
GASTEIGER

@<TRIPOS>ATOM
      1 N         141.5975  138.1620  158.5512 N.3     1  UNL1       -0.2689
      2 C         140.2697  138.4196  159.1997 C.3     1  UNL1        0.0741
      3 C         140.1980  138.7234  160.6668 C.3     1  UNL1        0.0369
      4 C         141.4540  138.7696  161.4854 C.3     1  UNL1        0.0747
      5 C         142.7818  138.5119  160.8369 C.3     1  UNL1        0.0369
      6 C         142.8536  138.2082  159.3698 C.3     1  UNL1        0.0741
      7 N         141.3823  139.0733  162.9526 N.am    1  UNL1       -0.2999
      8 C         141.6642  140.4617  163.4457 C.2     1  UNL1        0.2806
      9 O         142.0178  141.5462  162.4716 O.2     1  UNL1       -0.2668
     10 H         141.1502  138.3615  163.5919 H       1  UNL1        0.1498
     11 C         141.5925  140.7655  164.9128 C.ar    1  UNL1        0.2014
     12 C         142.6634  141.5921  165.5608 C.ar    1  UNL1        0.0843
     13 C         142.5917  141.8959  167.0280 C.ar    1  UNL1        0.2018
     14 O         143.6626  142.7225  167.6759 O.2     1  UNL1       -0.2864
     15 C         141.4491  141.3732  167.8472 C.ar    1  UNL1        0.0737
     16 C         141.3773  141.6770  169.3143 C.ar    1  UNL1        0.0085
     17 C         140.2347  141.1542  170.1335 C.ar    1  UNL1        0.0299
     18 C         139.1638  140.3276  169.4856 C.ar    1  UNL1        0.1432
     19 F         138.0212  139.8049  170.3048 F       1  UNL1       -0.2041
     20 C         139.2355  140.0238  168.0184 C.ar    1  UNL1        0.0672
     21 C         140.3781  140.5465  167.1992 C.ar    1  UNL1        0.1508
     22 O         140.4498  140.2427  165.7321 O.2     1  UNL1       -0.4486
     23 C         141.6693  137.8582  157.0839 C.3     1  UNL1        0.0992
     24 O         145.4206  131.1555  158.4076 O.2     1  UNL1       -0.2707
     25 C         144.6071  132.0320  157.5021 C.2     1  UNL1        0.2707
     26 C         144.2304  131.5507  156.1322 C.3     1  UNL1        0.2897
     27 O         143.4169  132.4272  155.2267 O.3     1  UNL1       -0.4643
     28 C         142.9800  133.7849  155.6910 C.ar    1  UNL1        0.1526
     29 C         142.1665  134.6614  154.7855 C.ar    1  UNL1        0.0379
     30 C         141.7296  136.0191  155.2497 C.ar    1  UNL1        0.0003
     31 C         142.1062  136.5005  156.6197 C.ar    1  UNL1       -0.0047
     32 C         142.9197  135.6240  157.5252 C.ar    1  UNL1        0.0148
     33 C         143.3566  134.2662  157.0608 C.ar    1  UNL1        0.0846
     34 N         144.1701  133.3897  157.9664 N.am    1  UNL1       -0.2785
     35 H         144.4173  133.7056  158.8655 H       1  UNL1        0.1551
@<TRIPOS>BOND
     1    24    25    2
     2    25    26    1
     3    26    27    1
     4    27    28    1
     5    28    29   ar
     6    29    30   ar
     7    30    31   ar
     8    31    23    1
     9    23     1    1
    10     1     2    1
    11     2     3    1
    12     3     4    1
    13     4     7    1
    14     7     8   am
    15     8     9    2
    16     8    11    1
    17    11    12   ar
    18    12    13   ar
    19    13    14    2
    20    13    15   ar
    21    15    16   ar
    22    16    17   ar
    23    17    18   ar
    24    18    19    1
    25    18    20   ar
    26    20    21   ar
    27    21    22   ar
    28     4     5    1
    29     5     6    1
    30    31    32   ar
    31    32    33   ar
    32    33    34    1
    33    34    25   am
    34    33    28   ar
    35     6     1    1
    36    22    11   ar
    37    21    15   ar
    38     7    10    1
    39    34    35    1
@<TRIPOS>MOLECULE
*****
 35 39 0 0 0
SMALL
GASTEIGER

@<TRIPOS>ATOM
      1 N         138.8929  141.6337  163.5717 N.3     1  UNL1       -0.2689
      2 C         140.3218  141.7185  163.1231 C.3     1  UNL1        0.0741
      3 C         140.6452  142.1790  161.7327 C.3     1  UNL1        0.0369
      4 C         139.5399  142.5548  160.7909 C.3     1  UNL1        0.0747
      5 C         138.1111  142.4700  161.2395 C.3     1  UNL1        0.0369
      6 C         137.7876  142.0095  162.6299 C.3     1  UNL1        0.0741
      7 N         139.8633  143.0153  159.4004 N.am    1  UNL1       -0.2999
      8 C         140.0091  144.4797  159.1103 C.2     1  UNL1        0.2806
      9 O         139.8315  145.4836  160.2106 O.2     1  UNL1       -0.2668
     10 H         139.9799  142.3564  158.6782 H       1  UNL1        0.1498
     11 C         140.3326  144.9403  157.7199 C.ar    1  UNL1        0.2014
     12 C         141.2071  144.1010  156.8363 C.ar    1  UNL1        0.0843
     13 C         141.5306  144.5616  155.4458 C.ar    1  UNL1        0.2018
     14 O         142.4051  143.7223  154.5622 O.2     1  UNL1       -0.2864
     15 C         140.9795  145.8614  154.9390 C.ar    1  UNL1        0.0737
     16 C         141.3029  146.3220  153.5486 C.ar    1  UNL1        0.0085
     17 C         140.7518  147.6218  153.0419 C.ar    1  UNL1        0.0299
     18 C         139.8773  148.4610  153.9255 C.ar    1  UNL1        0.1432
     19 F         139.3262  149.7608  153.4187 F       1  UNL1       -0.2041
     20 C         139.5538  148.0005  155.3160 C.ar    1  UNL1        0.0672
     21 C         140.1049  146.7007  155.8227 C.ar    1  UNL1        0.1508
     22 O         139.7815  146.2401  157.2131 O.2     1  UNL1       -0.4486
     23 C         138.5695  141.1732  164.9622 C.3     1  UNL1        0.0992
     24 O         143.0052  143.7517  170.8295 O.2     1  UNL1       -0.2707
     25 C         142.6298  142.6663  169.8646 C.2     1  UNL1        0.2707
     26 C         143.3576  141.3550  169.8907 C.3     1  UNL1        0.2897
     27 O         142.9823  140.2696  168.9258 O.3     1  UNL1       -0.4643
     28 C         141.8791  140.4955  167.9349 C.ar    1  UNL1        0.1526
     29 C         141.5037  139.4101  166.9700 C.ar    1  UNL1        0.0379
     30 C         140.4005  139.6360  165.9791 C.ar    1  UNL1        0.0003
     31 C         139.6727  140.9473  165.9531 C.ar    1  UNL1       -0.0047
     32 C         140.0480  142.0327  166.9179 C.ar    1  UNL1        0.0148
     33 C         141.1513  141.8068  167.9089 C.ar    1  UNL1        0.0846
     34 N         141.5266  142.8922  168.8737 N.am    1  UNL1       -0.2785
     35 H         141.0489  143.7529  168.8566 H       1  UNL1        0.1551
@<TRIPOS>BOND
     1    24    25    2
     2    25    26    1
     3    26    27    1
     4    27    28    1
     5    28    29   ar
     6    29    30   ar
     7    30    31   ar
     8    31    23    1
     9    23     1    1
    10     1     2    1
    11     2     3    1
    12     3     4    1
    13     4     7    1
    14     7     8   am
    15     8     9    2
    16     8    11    1
    17    11    12   ar
    18    12    13   ar
    19    13    14    2
    20    13    15   ar
    21    15    16   ar
    22    16    17   ar
    23    17    18   ar
    24    18    19    1
    25    18    20   ar
    26    20    21   ar
    27    21    22   ar
    28     4     5    1
    29     5     6    1
    30    31    32   ar
    31    32    33   ar
    32    33    34    1
    33    34    25   am
    34    33    28   ar
    35     6     1    1
    36    22    11   ar
    37    21    15   ar
    38     7    10    1
    39    34    35    1
