@<TRIPOS>MOLECULE
*****
 37 41 0 0 0
SMALL
GASTEIGER

@<TRIPOS>ATOM
      1 C         138.2334  140.4665  159.9518 C.3     1  UNL1        0.1700
      2 O         138.3718  140.0572  158.5154 O.3     1  UNL1       -0.3793
      3 H         138.5537  140.8400  157.9722 H       1  UNL1        0.2106
      4 C         138.3803  141.9084  160.3383 C.3     1  UNL1        0.2358
      5 O         139.5972  142.3638  161.0877 O.3     1  UNL1       -0.4726
      6 C         140.6250  143.9531  162.8676 C.ar    1  UNL1        0.0876
      7 C         140.4751  144.7886  164.1043 C.ar    1  UNL1        0.0099
      8 C         139.1476  144.8703  164.7979 C.ar    1  UNL1        0.0300
      9 C         137.9700  144.1166  164.2547 C.ar    1  UNL1        0.1432
     10 F         136.6424  144.1984  164.9483 F       1  UNL1       -0.2041
     11 C         138.1198  143.2811  163.0180 C.ar    1  UNL1        0.0666
     12 C         139.4473  143.1993  162.3244 C.ar    1  UNL1        0.1452
     13 O         142.1493  144.5462  160.8490 O.2     1  UNL1       -0.2698
     14 C         141.9525  143.8713  162.1741 C.2     1  UNL1        0.2520
     15 N         143.0833  143.1147  162.8056 N.am    1  UNL1       -0.2734
     16 C         143.0359  142.3929  164.1197 C.3     1  UNL1        0.0964
     17 C         144.3833  141.7790  164.3601 C.3     1  UNL1        0.0525
     18 C         145.2634  142.1215  163.1947 C.3     1  UNL1        0.1320
     19 O         146.6955  141.7106  163.0206 O.3     1  UNL1       -0.3827
     20 C         144.4599  142.9469  162.2339 C.3     1  UNL1        0.1228
     21 H         146.9753  141.1820  163.7842 H       1  UNL1        0.2104
     22 C         137.9482  139.4339  161.0018 C.3     1  UNL1        0.1056
     23 N         138.5742  139.5524  162.3598 N.3     1  UNL1       -0.2703
     24 C         140.0360  139.2683  162.5392 C.3     1  UNL1        0.0758
     25 C         140.6619  139.3868  163.8972 C.3     1  UNL1        0.0577
     26 C         139.8259  139.7893  165.0758 C.3     1  UNL1        0.1399
     27 C         138.3641  140.0735  164.8964 C.3     1  UNL1        0.0577
     28 C         137.7382  139.9550  163.5384 C.3     1  UNL1        0.0758
     29 C         139.1205  140.1797  166.3407 C.3     1  UNL1        0.0695
     30 C         140.1258  140.1699  167.4541 C.ar    1  UNL1        0.0161
     31 C         140.0045  140.4707  168.9186 C.ar    1  UNL1        0.0102
     32 C         141.2099  140.3751  169.8062 C.ar    1  UNL1        0.0576
     33 CL        141.0886  140.6759  171.2707 Cl      1  UNL1       -0.0823
     34 C         142.5365  139.9786  169.2294 C.ar    1  UNL1        0.0145
     35 C         142.6578  139.6778  167.7648 C.ar    1  UNL1        0.0374
     36 C         141.4525  139.7734  166.8772 C.ar    1  UNL1        0.1343
     37 O         141.2672  139.5382  165.4074 O.3     1  UNL1       -0.4825
@<TRIPOS>BOND
     1    13    14    2
     2    14     6    1
     3     6     7   ar
     4     7     8   ar
     5     8     9   ar
     6     9    10    1
     7     9    11   ar
     8    11    12   ar
     9    12     5    1
    10     5     4    1
    11     4     1    1
    12     1     2    1
    13     1    22    1
    14    22    23    1
    15    23    24    1
    16    24    25    1
    17    25    26    1
    18    26    27    1
    19    27    28    1
    20    26    29    1
    21    29    30    1
    22    30    31   ar
    23    31    32   ar
    24    32    33    1
    25    32    34   ar
    26    34    35   ar
    27    35    36   ar
    28    36    37    1
    29    14    15   am
    30    15    16    1
    31    16    17    1
    32    17    18    1
    33    18    19    1
    34    18    20    1
    35    12     6   ar
    36    28    23    1
    37    36    30   ar
    38    20    15    1
    39    37    26    1
    40     2     3    1
    41    19    21    1
@<TRIPOS>MOLECULE
*****
 37 41 0 0 0
SMALL
GASTEIGER

@<TRIPOS>ATOM
      1 C         140.8939  138.3971  160.3573 C.3     1  UNL1        0.1700
      2 O         141.0089  138.7454  158.9028 O.3     1  UNL1       -0.3793
      3 H         140.1240  138.8976  158.5359 H       1  UNL1        0.2106
      4 C         139.5442  138.3325  161.0086 C.3     1  UNL1        0.2358
      5 O         138.8027  139.5975  161.3248 O.3     1  UNL1       -0.4726
      6 C         138.8206  141.6473  162.9212 C.ar    1  UNL1        0.0876
      7 C         138.8585  142.2114  164.3105 C.ar    1  UNL1        0.0099
      8 C         138.9165  141.2901  165.4928 C.ar    1  UNL1        0.0300
      9 C         138.9366  139.8046  165.2858 C.ar    1  UNL1        0.1432
     10 F         138.9946  138.8833  166.4681 F       1  UNL1       -0.2041
     11 C         138.8987  139.2404  163.8964 C.ar    1  UNL1        0.0666
     12 C         138.8407  140.1617  162.7142 C.ar    1  UNL1        0.1452
     13 O         137.4877  142.7120  160.9617 O.2     1  UNL1       -0.2698
     14 C         138.7626  142.5686  161.7389 C.2     1  UNL1        0.2520
     15 N         139.9795  143.3464  161.3339 N.am    1  UNL1       -0.2734
     16 C         141.3173  143.3063  162.0110 C.3     1  UNL1        0.0964
     17 C         142.2368  144.2361  161.2762 C.3     1  UNL1        0.0525
     18 C         141.4673  144.8509  160.1448 C.3     1  UNL1        0.1320
     19 O         141.9995  145.8415  159.1522 O.3     1  UNL1       -0.3827
     20 C         140.0722  144.3010  160.1805 C.3     1  UNL1        0.1228
     21 H         142.9298  146.0306  159.3511 H       1  UNL1        0.2104
     22 C         142.1285  138.1134  161.1605 C.3     1  UNL1        0.1056
     23 N         142.2459  138.6308  162.5636 N.3     1  UNL1       -0.2703
     24 C         142.1110  137.6896  163.7237 C.3     1  UNL1        0.0758
     25 C         142.2284  138.2070  165.1267 C.3     1  UNL1        0.0577
     26 C         142.4806  139.6655  165.3696 C.3     1  UNL1        0.1399
     27 C         142.6154  140.6067  164.2095 C.3     1  UNL1        0.0577
     28 C         142.4981  140.0893  162.8065 C.3     1  UNL1        0.0758
     29 C         142.7304  141.0906  165.7658 C.3     1  UNL1        0.0695
     30 C         142.7729  141.1545  167.2640 C.ar    1  UNL1        0.0161
     31 C         142.9863  142.2953  168.2142 C.ar    1  UNL1        0.0102
     32 C         142.9762  142.0506  169.6941 C.ar    1  UNL1        0.0576
     33 CL        143.1895  143.1914  170.6444 Cl      1  UNL1       -0.0823
     34 C         142.7527  140.6651  170.2237 C.ar    1  UNL1        0.0145
     35 C         142.5393  139.5243  169.2734 C.ar    1  UNL1        0.0374
     36 C         142.5494  139.7689  167.7936 C.ar    1  UNL1        0.1343
     37 O         142.3688  138.8488  166.6228 O.3     1  UNL1       -0.4825
@<TRIPOS>BOND
     1    13    14    2
     2    14     6    1
     3     6     7   ar
     4     7     8   ar
     5     8     9   ar
     6     9    10    1
     7     9    11   ar
     8    11    12   ar
     9    12     5    1
    10     5     4    1
    11     4     1    1
    12     1     2    1
    13     1    22    1
    14    22    23    1
    15    23    24    1
    16    24    25    1
    17    25    26    1
    18    26    27    1
    19    27    28    1
    20    26    29    1
    21    29    30    1
    22    30    31   ar
    23    31    32   ar
    24    32    33    1
    25    32    34   ar
    26    34    35   ar
    27    35    36   ar
    28    36    37    1
    29    14    15   am
    30    15    16    1
    31    16    17    1
    32    17    18    1
    33    18    19    1
    34    18    20    1
    35    12     6   ar
    36    28    23    1
    37    36    30   ar
    38    20    15    1
    39    37    26    1
    40     2     3    1
    41    19    21    1
@<TRIPOS>MOLECULE
*****
 37 41 0 0 0
SMALL
GASTEIGER

@<TRIPOS>ATOM
      1 C         138.3734  139.4129  160.5795 C.3     1  UNL1        0.1700
      2 O         137.9342  139.7750  159.1917 O.3     1  UNL1       -0.3793
      3 H         138.3948  139.2124  158.5496 H       1  UNL1        0.2106
      4 C         139.3817  138.3217  160.7863 C.3     1  UNL1        0.2358
      5 O         140.8328  138.5786  160.5067 O.3     1  UNL1       -0.4726
      6 C         143.0834  139.4707  161.4497 C.ar    1  UNL1        0.0876
      7 C         144.0537  139.6052  162.5856 C.ar    1  UNL1        0.0099
      8 C         143.7438  138.9821  163.9145 C.ar    1  UNL1        0.0300
      9 C         142.4637  138.2246  164.1074 C.ar    1  UNL1        0.1432
     10 F         142.1538  137.6015  165.4362 F       1  UNL1       -0.2041
     11 C         141.4933  138.0900  162.9714 C.ar    1  UNL1        0.0666
     12 C         141.8031  138.7131  161.6426 C.ar    1  UNL1        0.1452
     13 O         144.0298  139.2735  159.0382 O.2     1  UNL1       -0.2698
     14 C         143.3933  140.0937  160.1209 C.2     1  UNL1        0.2520
     15 N         143.0666  141.5368  159.8747 N.am    1  UNL1       -0.2734
     16 C         142.4326  142.4771  160.8565 C.3     1  UNL1        0.0964
     17 C         142.2908  143.8145  160.1922 C.3     1  UNL1        0.0525
     18 C         142.8372  143.7008  158.7998 C.3     1  UNL1        0.1320
     19 O         142.8941  144.8014  157.7823 O.3     1  UNL1       -0.3827
     20 C         143.3167  142.2931  158.6037 C.3     1  UNL1        0.1228
     21 H         142.5198  145.6120  158.1616 H       1  UNL1        0.2104
     22 C         137.8044  140.1419  161.7604 C.3     1  UNL1        0.1056
     23 N         138.6281  140.3173  163.0017 N.3     1  UNL1       -0.2703
     24 C         138.4189  139.4072  164.1755 C.3     1  UNL1        0.0758
     25 C         139.2426  139.5826  165.4167 C.3     1  UNL1        0.0577
     26 C         140.2755  140.6682  165.4842 C.3     1  UNL1        0.1399
     27 C         140.4848  141.5783  164.3104 C.3     1  UNL1        0.0577
     28 C         139.6611  141.4029  163.0692 C.3     1  UNL1        0.0758
     29 C         141.3399  141.7035  165.6970 C.3     1  UNL1        0.0695
     30 C         141.9018  141.5142  167.0749 C.ar    1  UNL1        0.0161
     31 C         142.9737  142.2422  167.8305 C.ar    1  UNL1        0.0102
     32 C         143.3285  141.8180  169.2249 C.ar    1  UNL1        0.0576
     33 CL        144.4004  142.5460  169.9804 Cl      1  UNL1       -0.0823
     34 C         142.6113  140.6658  169.8636 C.ar    1  UNL1        0.0145
     35 C         141.5393  139.9378  169.1081 C.ar    1  UNL1        0.0374
     36 C         141.1845  140.3620  167.7137 C.ar    1  UNL1        0.1343
     37 O         140.1795  139.8391  166.7306 O.3     1  UNL1       -0.4825
@<TRIPOS>BOND
     1    13    14    2
     2    14     6    1
     3     6     7   ar
     4     7     8   ar
     5     8     9   ar
     6     9    10    1
     7     9    11   ar
     8    11    12   ar
     9    12     5    1
    10     5     4    1
    11     4     1    1
    12     1     2    1
    13     1    22    1
    14    22    23    1
    15    23    24    1
    16    24    25    1
    17    25    26    1
    18    26    27    1
    19    27    28    1
    20    26    29    1
    21    29    30    1
    22    30    31   ar
    23    31    32   ar
    24    32    33    1
    25    32    34   ar
    26    34    35   ar
    27    35    36   ar
    28    36    37    1
    29    14    15   am
    30    15    16    1
    31    16    17    1
    32    17    18    1
    33    18    19    1
    34    18    20    1
    35    12     6   ar
    36    28    23    1
    37    36    30   ar
    38    20    15    1
    39    37    26    1
    40     2     3    1
    41    19    21    1
@<TRIPOS>MOLECULE
*****
 37 41 0 0 0
SMALL
GASTEIGER

@<TRIPOS>ATOM
      1 C         142.6209  138.3892  161.2152 C.3     1  UNL1        0.1700
      2 O         142.6970  137.0047  160.6431 O.3     1  UNL1       -0.3793
      3 H         142.0263  136.9041  159.9496 H       1  UNL1        0.2106
      4 C         141.6068  139.3625  160.6913 C.3     1  UNL1        0.2358
      5 O         140.1441  139.1117  160.9093 O.3     1  UNL1       -0.4726
      6 C         138.9492  140.4827  162.7647 C.ar    1  UNL1        0.0876
      7 C         138.3708  140.5711  164.1458 C.ar    1  UNL1        0.0099
      8 C         138.4088  139.3769  165.0528 C.ar    1  UNL1        0.0300
      9 C         139.0253  138.0944  164.5786 C.ar    1  UNL1        0.1432
     10 F         139.0634  136.9002  165.4855 F       1  UNL1       -0.2041
     11 C         139.6038  138.0059  163.1974 C.ar    1  UNL1        0.0666
     12 C         139.5657  139.2001  162.2904 C.ar    1  UNL1        0.1452
     13 O         138.4122  141.5342  160.4504 O.2     1  UNL1       -0.2698
     14 C         138.9112  141.6769  161.8578 C.2     1  UNL1        0.2520
     15 N         139.3720  143.0137  162.3582 N.am    1  UNL1       -0.2734
     16 C         139.8937  143.3083  163.7334 C.3     1  UNL1        0.0964
     17 C         140.2362  144.7673  163.7964 C.3     1  UNL1        0.0525
     18 C         139.9262  145.3744  162.4602 C.3     1  UNL1        0.1320
     19 O         140.1168  146.8128  162.0797 O.3     1  UNL1       -0.3827
     20 C         139.3921  144.2906  161.5714 C.3     1  UNL1        0.1228
     21 H         140.4759  147.3025  162.8361 H       1  UNL1        0.2104
     22 C         143.5589  138.8004  162.3111 C.3     1  UNL1        0.1056
     23 N         143.0145  139.2565  163.6324 N.3     1  UNL1       -0.2703
     24 C         142.9577  138.3036  164.7894 C.3     1  UNL1        0.0758
     25 C         142.4134  138.7598  166.1106 C.3     1  UNL1        0.0577
     26 C         141.9259  140.1688  166.2748 C.3     1  UNL1        0.1399
     27 C         141.9827  141.1217  165.1178 C.3     1  UNL1        0.0577
     28 C         142.5270  140.6656  163.7966 C.3     1  UNL1        0.0758
     29 C         141.4048  141.5401  166.5877 C.3     1  UNL1        0.0695
     30 C         140.9639  141.5525  168.0215 C.ar    1  UNL1        0.0161
     31 C         140.3681  142.6293  168.8791 C.ar    1  UNL1        0.0102
     32 C         140.0211  142.3425  170.3099 C.ar    1  UNL1        0.0576
     33 CL        139.4254  143.4193  171.1675 Cl      1  UNL1       -0.0823
     34 C         140.2697  140.9789  170.8831 C.ar    1  UNL1        0.0145
     35 C         140.8655  139.9020  170.0255 C.ar    1  UNL1        0.0374
     36 C         141.2126  140.1888  168.5947 C.ar    1  UNL1        0.1343
     37 O         141.8071  139.3336  167.5152 O.3     1  UNL1       -0.4825
@<TRIPOS>BOND
     1    13    14    2
     2    14     6    1
     3     6     7   ar
     4     7     8   ar
     5     8     9   ar
     6     9    10    1
     7     9    11   ar
     8    11    12   ar
     9    12     5    1
    10     5     4    1
    11     4     1    1
    12     1     2    1
    13     1    22    1
    14    22    23    1
    15    23    24    1
    16    24    25    1
    17    25    26    1
    18    26    27    1
    19    27    28    1
    20    26    29    1
    21    29    30    1
    22    30    31   ar
    23    31    32   ar
    24    32    33    1
    25    32    34   ar
    26    34    35   ar
    27    35    36   ar
    28    36    37    1
    29    14    15   am
    30    15    16    1
    31    16    17    1
    32    17    18    1
    33    18    19    1
    34    18    20    1
    35    12     6   ar
    36    28    23    1
    37    36    30   ar
    38    20    15    1
    39    37    26    1
    40     2     3    1
    41    19    21    1
@<TRIPOS>MOLECULE
*****
 37 41 0 0 0
SMALL
GASTEIGER

@<TRIPOS>ATOM
      1 C         137.9722  139.8695  160.9087 C.3     1  UNL1        0.1700
      2 O         136.5608  139.6394  160.4558 O.3     1  UNL1       -0.3793
      3 H         136.3299  140.2898  159.7742 H       1  UNL1        0.2106
      4 C         138.7820  140.9789  160.3057 C.3     1  UNL1        0.2358
      5 O         138.4170  142.4079  160.5789 O.3     1  UNL1       -0.4726
      6 C         140.2850  143.3656  162.1097 C.ar    1  UNL1        0.0876
      7 C         140.7057  144.0145  163.3950 C.ar    1  UNL1        0.0099
      8 C         139.6793  144.3547  164.4345 C.ar    1  UNL1        0.0300
      9 C         138.2321  144.0460  164.1889 C.ar    1  UNL1        0.1432
     10 F         137.2057  144.3861  165.2285 F       1  UNL1       -0.2041
     11 C         137.8113  143.3970  162.9037 C.ar    1  UNL1        0.0666
     12 C         138.8377  143.0568  161.8641 C.ar    1  UNL1        0.1452
     13 O         142.1891  141.8221  161.2483 O.2     1  UNL1       -0.2698
     14 C         141.3114  143.0254  161.0702 C.2     1  UNL1        0.2520
     15 N         141.4601  143.8885  159.8524 N.am    1  UNL1       -0.2734
     16 C         140.6582  145.1168  159.5390 C.3     1  UNL1        0.0964
     17 C         141.1394  145.6623  158.2272 C.3     1  UNL1        0.0525
     18 C         142.2387  144.7712  157.7298 C.3     1  UNL1        0.1320
     19 O         143.0052  144.9456  156.4523 O.3     1  UNL1       -0.3827
     20 C         142.4369  143.6749  158.7343 C.3     1  UNL1        0.1228
     21 H         142.6815  145.7321  155.9859 H       1  UNL1        0.2104
     22 C         138.5737  138.9902  161.9646 C.3     1  UNL1        0.1056
     23 N         139.1801  139.6009  163.1932 N.3     1  UNL1       -0.2703
     24 C         138.2969  140.2039  164.2450 C.3     1  UNL1        0.0758
     25 C         138.9032  140.8146  165.4735 C.3     1  UNL1        0.0577
     26 C         140.3927  140.8223  165.6503 C.3     1  UNL1        0.1399
     27 C         141.2759  140.2193  164.5985 C.3     1  UNL1        0.0577
     28 C         140.6696  139.6086  163.3700 C.3     1  UNL1        0.0758
     29 C         141.8574  140.9033  165.9637 C.3     1  UNL1        0.0695
     30 C         142.0108  141.5903  167.2883 C.ar    1  UNL1        0.0161
     31 C         143.2208  141.9474  168.0997 C.ar    1  UNL1        0.0102
     32 C         143.0609  142.6481  169.4163 C.ar    1  UNL1        0.0576
     33 CL        144.2709  143.0052  170.2276 Cl      1  UNL1       -0.0823
     34 C         141.6911  142.9918  169.9215 C.ar    1  UNL1        0.0145
     35 C         140.4810  142.6348  169.1101 C.ar    1  UNL1        0.0374
     36 C         140.6408  141.9340  167.7935 C.ar    1  UNL1        0.1343
     37 O         139.6409  141.4594  166.7812 O.3     1  UNL1       -0.4825
@<TRIPOS>BOND
     1    13    14    2
     2    14     6    1
     3     6     7   ar
     4     7     8   ar
     5     8     9   ar
     6     9    10    1
     7     9    11   ar
     8    11    12   ar
     9    12     5    1
    10     5     4    1
    11     4     1    1
    12     1     2    1
    13     1    22    1
    14    22    23    1
    15    23    24    1
    16    24    25    1
    17    25    26    1
    18    26    27    1
    19    27    28    1
    20    26    29    1
    21    29    30    1
    22    30    31   ar
    23    31    32   ar
    24    32    33    1
    25    32    34   ar
    26    34    35   ar
    27    35    36   ar
    28    36    37    1
    29    14    15   am
    30    15    16    1
    31    16    17    1
    32    17    18    1
    33    18    19    1
    34    18    20    1
    35    12     6   ar
    36    28    23    1
    37    36    30   ar
    38    20    15    1
    39    37    26    1
    40     2     3    1
    41    19    21    1
@<TRIPOS>MOLECULE
*****
 37 41 0 0 0
SMALL
GASTEIGER

@<TRIPOS>ATOM
      1 C         138.1065  140.3140  160.6705 C.3     1  UNL1        0.1700
      2 O         136.6727  139.8740  160.6943 O.3     1  UNL1       -0.3793
      3 H         136.1425  140.4694  160.1417 H       1  UNL1        0.2106
      4 C         138.5094  141.5144  159.8662 C.3     1  UNL1        0.2358
      5 O         138.0954  142.8867  160.3082 O.3     1  UNL1       -0.4726
      6 C         139.9257  144.3551  161.4234 C.ar    1  UNL1        0.0876
      7 C         140.5334  144.9621  162.6532 C.ar    1  UNL1        0.0099
      8 C         139.9185  144.7077  163.9975 C.ar    1  UNL1        0.0300
      9 C         138.6959  143.8462  164.1120 C.ar    1  UNL1        0.1432
     10 F         138.0810  143.5918  165.4563 F       1  UNL1       -0.2041
     11 C         138.0881  143.2392  162.8823 C.ar    1  UNL1        0.0666
     12 C         138.7031  143.4936  161.5380 C.ar    1  UNL1        0.1452
     13 O         139.8986  145.5797  159.1322 O.2     1  UNL1       -0.2698
     14 C         140.5407  144.6095  160.0791 C.2     1  UNL1        0.2520
     15 N         141.7976  143.8939  159.6818 N.am    1  UNL1       -0.2734
     16 C         142.5491  142.9013  160.5184 C.3     1  UNL1        0.0964
     17 C         143.7397  142.4391  159.7318 C.3     1  UNL1        0.0525
     18 C         143.7241  143.1461  158.4089 C.3     1  UNL1        0.1320
     19 O         144.7318  142.9827  157.3099 O.3     1  UNL1       -0.3827
     20 C         142.5238  144.0452  158.3780 C.3     1  UNL1        0.1228
     21 H         145.4071  142.3423  157.5831 H       1  UNL1        0.2104
     22 C         139.1374  139.5535  161.4508 C.3     1  UNL1        0.1056
     23 N         139.5159  140.0034  162.8308 N.3     1  UNL1       -0.2703
     24 C         138.5894  139.7498  163.9829 C.3     1  UNL1        0.0758
     25 C         138.9680  140.1997  165.3628 C.3     1  UNL1        0.0577
     26 C         140.2731  140.9032  165.5907 C.3     1  UNL1        0.1399
     27 C         141.1996  141.1567  164.4386 C.3     1  UNL1        0.0577
     28 C         140.8210  140.7069  163.0587 C.3     1  UNL1        0.0758
     29 C         141.5380  141.6146  165.9701 C.3     1  UNL1        0.0695
     30 C         141.4999  141.8717  167.4475 C.ar    1  UNL1        0.0161
     31 C         142.4719  142.5376  168.3758 C.ar    1  UNL1        0.0102
     32 C         142.1555  142.6509  169.8377 C.ar    1  UNL1        0.0576
     33 CL        143.1276  143.3168  170.7660 Cl      1  UNL1       -0.0823
     34 C         140.8672  142.0984  170.3713 C.ar    1  UNL1        0.0145
     35 C         139.8951  141.4325  169.4430 C.ar    1  UNL1        0.0374
     36 C         140.2114  141.3192  167.9811 C.ar    1  UNL1        0.1343
     37 O         139.4533  140.7206  166.8336 O.3     1  UNL1       -0.4825
@<TRIPOS>BOND
     1    13    14    2
     2    14     6    1
     3     6     7   ar
     4     7     8   ar
     5     8     9   ar
     6     9    10    1
     7     9    11   ar
     8    11    12   ar
     9    12     5    1
    10     5     4    1
    11     4     1    1
    12     1     2    1
    13     1    22    1
    14    22    23    1
    15    23    24    1
    16    24    25    1
    17    25    26    1
    18    26    27    1
    19    27    28    1
    20    26    29    1
    21    29    30    1
    22    30    31   ar
    23    31    32   ar
    24    32    33    1
    25    32    34   ar
    26    34    35   ar
    27    35    36   ar
    28    36    37    1
    29    14    15   am
    30    15    16    1
    31    16    17    1
    32    17    18    1
    33    18    19    1
    34    18    20    1
    35    12     6   ar
    36    28    23    1
    37    36    30   ar
    38    20    15    1
    39    37    26    1
    40     2     3    1
    41    19    21    1
@<TRIPOS>MOLECULE
*****
 37 41 0 0 0
SMALL
GASTEIGER

@<TRIPOS>ATOM
      1 C         140.3132  144.7184  160.2949 C.3     1  UNL1        0.1700
      2 O         139.5968  146.0357  160.3355 O.3     1  UNL1       -0.3793
      3 H         138.7970  145.9857  159.7889 H       1  UNL1        0.2106
      4 C         139.7546  143.5855  159.4858 C.3     1  UNL1        0.2358
      5 O         138.4129  143.0091  159.8286 O.3     1  UNL1       -0.4726
      6 C         138.4415  140.7456  161.1035 C.ar    1  UNL1        0.0876
      7 C         138.2618  139.9675  162.3733 C.ar    1  UNL1        0.0099
      8 C         137.8737  140.6749  163.6378 C.ar    1  UNL1        0.0300
      9 C         137.6653  142.1603  163.6326 C.ar    1  UNL1        0.1432
     10 F         137.2772  142.8677  164.8971 F       1  UNL1       -0.2041
     11 C         137.8451  142.9384  162.3628 C.ar    1  UNL1        0.0666
     12 C         138.2332  142.2311  161.0983 C.ar    1  UNL1        0.1452
     13 O         137.8392  139.9040  158.7204 O.2     1  UNL1       -0.2698
     14 C         138.8296  140.0382  159.8390 C.2     1  UNL1        0.2520
     15 N         140.2080  139.4650  159.6930 N.am    1  UNL1       -0.2734
     16 C         141.2996  139.5212  160.7203 C.3     1  UNL1        0.0964
     17 C         142.5031  138.8260  160.1563 C.3     1  UNL1        0.0525
     18 C         142.1554  138.3401  158.7804 C.3     1  UNL1        0.1320
     19 O         143.0662  137.5908  157.8536 O.3     1  UNL1       -0.3827
     20 C         140.7370  138.7351  158.4941 C.3     1  UNL1        0.1228
     21 H         143.9280  137.4635  158.2802 H       1  UNL1        0.2104
     22 C         141.5880  144.5340  161.0634 C.3     1  UNL1        0.1056
     23 N         141.5705  143.8284  162.3870 N.3     1  UNL1       -0.2703
     24 C         142.3343  142.5498  162.5654 C.3     1  UNL1        0.0758
     25 C         142.3168  141.8441  163.8889 C.3     1  UNL1        0.0577
     26 C         141.5355  142.4171  165.0341 C.3     1  UNL1        0.1399
     27 C         140.7718  143.6957  164.8557 C.3     1  UNL1        0.0577
     28 C         140.7893  144.4013  163.5322 C.3     1  UNL1        0.0758
     29 C         140.8036  142.8672  166.2636 C.3     1  UNL1        0.0695
     30 C         141.0626  141.8657  167.3499 C.ar    1  UNL1        0.0161
     31 C         140.6015  141.7891  168.7752 C.ar    1  UNL1        0.0102
     32 C         141.0323  140.6435  169.6424 C.ar    1  UNL1        0.0576
     33 CL        140.5712  140.5669  171.0676 Cl      1  UNL1       -0.0823
     34 C         141.9243  139.5745  169.0842 C.ar    1  UNL1        0.0145
     35 C         142.3855  139.6511  167.6589 C.ar    1  UNL1        0.0374
     36 C         141.9546  140.7967  166.7917 C.ar    1  UNL1        0.1343
     37 O         142.2469  141.1374  165.3605 O.3     1  UNL1       -0.4825
@<TRIPOS>BOND
     1    13    14    2
     2    14     6    1
     3     6     7   ar
     4     7     8   ar
     5     8     9   ar
     6     9    10    1
     7     9    11   ar
     8    11    12   ar
     9    12     5    1
    10     5     4    1
    11     4     1    1
    12     1     2    1
    13     1    22    1
    14    22    23    1
    15    23    24    1
    16    24    25    1
    17    25    26    1
    18    26    27    1
    19    27    28    1
    20    26    29    1
    21    29    30    1
    22    30    31   ar
    23    31    32   ar
    24    32    33    1
    25    32    34   ar
    26    34    35   ar
    27    35    36   ar
    28    36    37    1
    29    14    15   am
    30    15    16    1
    31    16    17    1
    32    17    18    1
    33    18    19    1
    34    18    20    1
    35    12     6   ar
    36    28    23    1
    37    36    30   ar
    38    20    15    1
    39    37    26    1
    40     2     3    1
    41    19    21    1
@<TRIPOS>MOLECULE
*****
 37 41 0 0 0
SMALL
GASTEIGER

@<TRIPOS>ATOM
      1 C         139.7390  138.5831  160.1291 C.3     1  UNL1        0.1700
      2 O         139.1734  138.7442  158.7492 O.3     1  UNL1       -0.3793
      3 H         139.8962  138.8857  158.1180 H       1  UNL1        0.2106
      4 C         141.2217  138.6542  160.3450 C.3     1  UNL1        0.2358
      5 O         141.8817  139.9793  160.5868 O.3     1  UNL1       -0.4726
      6 C         142.6840  141.7327  162.3281 C.ar    1  UNL1        0.0876
      7 C         143.2388  142.0580  163.6832 C.ar    1  UNL1        0.0099
      8 C         143.5462  140.9550  164.6522 C.ar    1  UNL1        0.0300
      9 C         143.2988  139.5269  164.2662 C.ar    1  UNL1        0.1432
     10 F         143.6061  138.4239  165.2352 F       1  UNL1       -0.2041
     11 C         142.7439  139.2016  162.9110 C.ar    1  UNL1        0.0666
     12 C         142.4365  140.3045  161.9419 C.ar    1  UNL1        0.1452
     13 O         143.1001  142.9043  160.0468 O.2     1  UNL1       -0.2698
     14 C         142.3766  142.8356  161.3590 C.2     1  UNL1        0.2520
     15 N         141.3458  143.8698  161.7021 N.am    1  UNL1       -0.2734
     16 C         140.5455  143.9305  162.9693 C.3     1  UNL1        0.0964
     17 C         139.6394  145.1231  162.8887 C.3     1  UNL1        0.0525
     18 C         139.8796  145.7996  161.5716 C.3     1  UNL1        0.1320
     19 O         139.1868  147.0339  161.0750 O.3     1  UNL1       -0.3827
     20 C         140.9342  145.0250  160.8383 C.3     1  UNL1        0.1228
     21 H         138.5496  147.3369  161.7406 H       1  UNL1        0.2104
     22 C         138.8220  138.3508  161.2932 C.3     1  UNL1        0.1056
     23 N         139.1442  138.9453  162.6322 N.3     1  UNL1       -0.2703
     24 C         139.1241  140.4338  162.8164 C.3     1  UNL1        0.0758
     25 C         139.4464  141.0282  164.1553 C.3     1  UNL1        0.0577
     26 C         139.7888  140.1341  165.3100 C.3     1  UNL1        0.1399
     27 C         139.8089  138.6456  165.1258 C.3     1  UNL1        0.0577
     28 C         139.4866  138.0513  163.7869 C.3     1  UNL1        0.0758
     29 C         140.1475  139.3706  166.5504 C.3     1  UNL1        0.0695
     30 C         140.3894  140.3611  167.6507 C.ar    1  UNL1        0.0161
     31 C         140.7731  140.1881  169.0904 C.ar    1  UNL1        0.0102
     32 C         140.9476  141.3907  169.9698 C.ar    1  UNL1        0.0576
     33 CL        141.3313  141.2177  171.4095 Cl      1  UNL1       -0.0823
     34 C         140.7383  142.7663  169.4095 C.ar    1  UNL1        0.0145
     35 C         140.3546  142.9393  167.9697 C.ar    1  UNL1        0.0374
     36 C         140.1801  141.7367  167.0903 C.ar    1  UNL1        0.1343
     37 O         139.8089  141.5965  165.6438 O.3     1  UNL1       -0.4825
@<TRIPOS>BOND
     1    13    14    2
     2    14     6    1
     3     6     7   ar
     4     7     8   ar
     5     8     9   ar
     6     9    10    1
     7     9    11   ar
     8    11    12   ar
     9    12     5    1
    10     5     4    1
    11     4     1    1
    12     1     2    1
    13     1    22    1
    14    22    23    1
    15    23    24    1
    16    24    25    1
    17    25    26    1
    18    26    27    1
    19    27    28    1
    20    26    29    1
    21    29    30    1
    22    30    31   ar
    23    31    32   ar
    24    32    33    1
    25    32    34   ar
    26    34    35   ar
    27    35    36   ar
    28    36    37    1
    29    14    15   am
    30    15    16    1
    31    16    17    1
    32    17    18    1
    33    18    19    1
    34    18    20    1
    35    12     6   ar
    36    28    23    1
    37    36    30   ar
    38    20    15    1
    39    37    26    1
    40     2     3    1
    41    19    21    1
@<TRIPOS>MOLECULE
*****
 37 41 0 0 0
SMALL
GASTEIGER

@<TRIPOS>ATOM
      1 C         140.7339  145.0153  160.9018 C.3     1  UNL1        0.1700
      2 O         141.8528  145.5237  160.0417 O.3     1  UNL1       -0.3793
      3 H         141.8219  145.0838  159.1777 H       1  UNL1        0.2106
      4 C         139.7881  143.9807  160.3679 C.3     1  UNL1        0.2358
      5 O         140.2176  142.5463  160.2796 O.3     1  UNL1       -0.4726
      6 C         141.1325  140.6339  161.7815 C.ar    1  UNL1        0.0876
      7 C         140.9839  139.7319  162.9707 C.ar    1  UNL1        0.0099
      8 C         139.7715  139.8404  163.8473 C.ar    1  UNL1        0.0300
      9 C         138.7079  140.8507  163.5347 C.ar    1  UNL1        0.1432
     10 F         137.4956  140.9592  164.4114 F       1  UNL1       -0.2041
     11 C         138.8565  141.7527  162.3454 C.ar    1  UNL1        0.0666
     12 C         140.0689  141.6443  161.4688 C.ar    1  UNL1        0.1452
     13 O         143.6007  141.2616  161.2671 O.2     1  UNL1       -0.2698
     14 C         142.3449  140.5255  160.9048 C.2     1  UNL1        0.2520
     15 N         142.3015  139.6809  159.6660 N.am    1  UNL1       -0.2734
     16 C         141.1232  138.8913  159.1780 C.3     1  UNL1        0.0964
     17 C         141.5222  138.2001  157.9080 C.3     1  UNL1        0.0525
     18 C         142.9472  138.5625  157.6110 C.3     1  UNL1        0.1320
     19 O         143.7497  138.0922  156.4342 O.3     1  UNL1       -0.3827
     20 C         143.4288  139.4777  158.6975 C.3     1  UNL1        0.1228
     21 H         143.2042  137.5095  155.8830 H       1  UNL1        0.2104
     22 C         140.5608  145.5416  162.2957 C.3     1  UNL1        0.1056
     23 N         140.6906  144.6155  163.4686 N.3     1  UNL1       -0.2703
     24 C         139.6174  144.5764  164.5157 C.3     1  UNL1        0.0758
     25 C         139.7472  143.6503  165.6885 C.3     1  UNL1        0.0577
     26 C         140.9503  142.7633  165.8141 C.3     1  UNL1        0.1399
     27 C         142.0235  142.8023  164.7670 C.3     1  UNL1        0.0577
     28 C         141.8937  143.7284  163.5942 C.3     1  UNL1        0.0758
     29 C         142.0898  141.8228  166.0730 C.3     1  UNL1        0.0695
     30 C         141.8072  141.0933  167.3529 C.ar    1  UNL1        0.0161
     31 C         142.5767  140.0465  168.1026 C.ar    1  UNL1        0.0102
     32 C         142.0320  139.4893  169.3843 C.ar    1  UNL1        0.0576
     33 CL        142.8015  138.4425  170.1339 Cl      1  UNL1       -0.0823
     34 C         140.7178  139.9788  169.9163 C.ar    1  UNL1        0.0145
     35 C         139.9482  141.0256  169.1667 C.ar    1  UNL1        0.0374
     36 C         140.4929  141.5829  167.8850 C.ar    1  UNL1        0.1343
     37 O         139.9633  142.6149  166.9340 O.3     1  UNL1       -0.4825
@<TRIPOS>BOND
     1    13    14    2
     2    14     6    1
     3     6     7   ar
     4     7     8   ar
     5     8     9   ar
     6     9    10    1
     7     9    11   ar
     8    11    12   ar
     9    12     5    1
    10     5     4    1
    11     4     1    1
    12     1     2    1
    13     1    22    1
    14    22    23    1
    15    23    24    1
    16    24    25    1
    17    25    26    1
    18    26    27    1
    19    27    28    1
    20    26    29    1
    21    29    30    1
    22    30    31   ar
    23    31    32   ar
    24    32    33    1
    25    32    34   ar
    26    34    35   ar
    27    35    36   ar
    28    36    37    1
    29    14    15   am
    30    15    16    1
    31    16    17    1
    32    17    18    1
    33    18    19    1
    34    18    20    1
    35    12     6   ar
    36    28    23    1
    37    36    30   ar
    38    20    15    1
    39    37    26    1
    40     2     3    1
    41    19    21    1
