@<TRIPOS>MOLECULE
*****
 29 32 0 0 0
SMALL
GASTEIGER

@<TRIPOS>ATOM
      1 C         137.7384  144.2763  163.3967 C.3     1  UNL1        0.0236
      2 C         139.1421  144.1051  162.8962 C.3     1  UNL1        0.0987
      3 C         139.4488  144.3031  161.4413 C.3     1  UNL1        0.1289
      4 N         140.8525  144.1320  160.9408 N.ar    1  UNL1       -0.2887
      5 C         141.9493  143.7629  161.8951 C.ar    1  UNL1        0.2205
      6 N         143.2274  143.6636  161.1163 N.ar    1  UNL1       -0.1239
      7 N         142.9205  143.9713  159.6806 N.ar    1  UNL1       -0.1270
      8 C         141.4527  144.2609  159.5721 C.ar    1  UNL1        0.1859
      9 C         141.6425  143.5649  163.3499 C.2     1  UNL1        0.2854
     10 O         142.7393  143.1957  164.3043 O.2     1  UNL1       -0.2665
     11 N         140.2388  143.7360  163.8505 N.am    1  UNL1       -0.2691
     12 C         140.7147  144.6167  158.3157 C.ar    1  UNL1        0.1362
     13 C         139.7094  143.6634  157.7408 C.ar    1  UNL1        0.1211
     14 N         138.9714  144.0193  156.4842 N.ar    1  UNL1       -0.2390
     15 C         139.2388  145.3283  155.8027 C.ar    1  UNL1        0.1195
     16 C         140.2442  146.2817  156.3776 C.ar    1  UNL1        0.1196
     17 N         140.9821  145.9259  157.6340 N.ar    1  UNL1       -0.2375
     18 C         139.9320  143.5380  165.3054 C.3     1  UNL1        0.1214
     19 C         139.6022  142.1692  165.8228 C.ar    1  UNL1        0.0082
     20 C         138.7947  141.2244  164.9830 C.ar    1  UNL1       -0.0018
     21 C         138.4648  139.8557  165.5004 C.ar    1  UNL1       -0.0003
     22 C         138.9426  139.4317  166.8576 C.ar    1  UNL1        0.0047
     23 C         139.7501  140.3764  167.6974 C.ar    1  UNL1        0.0817
     24 C         140.0799  141.7452  167.1800 C.ar    1  UNL1        0.0592
     25 CL        140.8875  142.6900  168.0198 Cl      1  UNL1       -0.0826
     26 C         140.2279  139.9525  169.0547 C.3     1  UNL1        0.4194
     27 F         140.7058  139.5286  170.4118 F       1  UNL1       -0.1658
     28 F         141.5346  139.5191  168.4592 F       1  UNL1       -0.1658
     29 F         138.9212  140.3859  169.6501 F       1  UNL1       -0.1658
@<TRIPOS>BOND
     1     2     1    1
     2     2     3    1
     3     3     4    1
     4     4     5   ar
     5     5     6   ar
     6     6     7   ar
     7     7     8   ar
     8     8    12    1
     9    12    13   ar
    10    13    14   ar
    11    14    15   ar
    12    15    16   ar
    13    16    17   ar
    14     5     9    1
    15     9    10    2
    16     9    11   am
    17    11    18    1
    18    18    19    1
    19    19    20   ar
    20    20    21   ar
    21    21    22   ar
    22    22    23   ar
    23    23    26    1
    24    26    27    1
    25    26    28    1
    26    26    29    1
    27    23    24   ar
    28    24    25    1
    29    11     2    1
    30    24    19   ar
    31     8     4   ar
    32    17    12   ar
@<TRIPOS>MOLECULE
*****
 29 32 0 0 0
SMALL
GASTEIGER

@<TRIPOS>ATOM
      1 C         139.1196  137.6683  163.3887 C.3     1  UNL1        0.0236
      2 C         138.8893  138.7330  162.3574 C.3     1  UNL1        0.0987
      3 C         139.2912  138.4956  160.9319 C.3     1  UNL1        0.1289
      4 N         139.0609  139.5603  159.9006 N.ar    1  UNL1       -0.2887
      5 C         138.4288  140.8622  160.2948 C.ar    1  UNL1        0.2205
      6 N         138.3277  141.7188  159.0677 N.ar    1  UNL1       -0.1239
      7 N         138.8973  140.9463  157.9150 N.ar    1  UNL1       -0.1270
      8 C         139.3505  139.6122  158.4297 C.ar    1  UNL1        0.1859
      9 C         138.0270  141.0995  161.7204 C.2     1  UNL1        0.2854
     10 O         137.3949  142.4014  162.1147 O.2     1  UNL1       -0.2665
     11 N         138.2573  140.0348  162.7517 N.am    1  UNL1       -0.2691
     12 C         139.9823  138.5217  157.6164 C.ar    1  UNL1        0.1362
     13 C         141.4033  138.1187  157.8775 C.ar    1  UNL1        0.1211
     14 N         142.0352  137.0280  157.0641 N.ar    1  UNL1       -0.2390
     15 C         141.2459  136.3405  155.9898 C.ar    1  UNL1        0.1195
     16 C         139.8248  136.7436  155.7287 C.ar    1  UNL1        0.1196
     17 N         139.1930  137.8341  156.5420 N.ar    1  UNL1       -0.2375
     18 C         137.8554  140.2721  164.1773 C.3     1  UNL1        0.1214
     19 C         138.8341  140.8728  165.1424 C.ar    1  UNL1        0.0082
     20 C         139.5485  142.1444  164.7921 C.ar    1  UNL1       -0.0018
     21 C         140.5272  142.7451  165.7572 C.ar    1  UNL1       -0.0003
     22 C         140.7915  142.0742  167.0725 C.ar    1  UNL1        0.0047
     23 C         140.0772  140.8026  167.4227 C.ar    1  UNL1        0.0817
     24 C         139.0984  140.2019  166.4576 C.ar    1  UNL1        0.0592
     25 CL        138.3841  138.9303  166.8079 Cl      1  UNL1       -0.0826
     26 C         140.3414  140.1315  168.7380 C.3     1  UNL1        0.4194
     27 F         140.6056  139.4606  170.0533 F       1  UNL1       -0.1658
     28 F         139.1265  140.7922  169.3190 F       1  UNL1       -0.1658
     29 F         141.5563  139.4710  168.1569 F       1  UNL1       -0.1658
@<TRIPOS>BOND
     1     2     1    1
     2     2     3    1
     3     3     4    1
     4     4     5   ar
     5     5     6   ar
     6     6     7   ar
     7     7     8   ar
     8     8    12    1
     9    12    13   ar
    10    13    14   ar
    11    14    15   ar
    12    15    16   ar
    13    16    17   ar
    14     5     9    1
    15     9    10    2
    16     9    11   am
    17    11    18    1
    18    18    19    1
    19    19    20   ar
    20    20    21   ar
    21    21    22   ar
    22    22    23   ar
    23    23    26    1
    24    26    27    1
    25    26    28    1
    26    26    29    1
    27    23    24   ar
    28    24    25    1
    29    11     2    1
    30    24    19   ar
    31     8     4   ar
    32    17    12   ar
@<TRIPOS>MOLECULE
*****
 29 32 0 0 0
SMALL
GASTEIGER

@<TRIPOS>ATOM
      1 C         138.8743  137.7060  163.3304 C.3     1  UNL1        0.0236
      2 C         140.1816  137.9985  162.6555 C.3     1  UNL1        0.0987
      3 C         140.2686  138.0006  161.1580 C.3     1  UNL1        0.1289
      4 N         141.5758  138.2931  160.4831 N.ar    1  UNL1       -0.2887
      5 C         142.7961  138.5834  161.3056 C.ar    1  UNL1        0.2205
      6 N         143.9388  138.8349  160.3670 N.ar    1  UNL1       -0.1239
      7 N         143.4247  138.7000  158.9644 N.ar    1  UNL1       -0.1270
      8 C         141.9643  138.3652  159.0361 C.ar    1  UNL1        0.1859
      9 C         142.7092  138.5813  162.8031 C.2     1  UNL1        0.2854
     10 O         143.9295  138.8716  163.6257 O.2     1  UNL1       -0.2665
     11 N         141.4019  138.2888  163.4780 N.am    1  UNL1       -0.2691
     12 C         141.0525  138.1416  157.8662 C.ar    1  UNL1        0.1362
     13 C         139.8361  139.0010  157.6885 C.ar    1  UNL1        0.1211
     14 N         138.9242  138.7775  156.5186 N.ar    1  UNL1       -0.2390
     15 C         139.2289  137.6947  155.5264 C.ar    1  UNL1        0.1195
     16 C         140.4454  136.8353  155.7041 C.ar    1  UNL1        0.1196
     17 N         141.3572  137.0587  156.8740 N.ar    1  UNL1       -0.2375
     18 C         141.3149  138.2866  164.9756 C.3     1  UNL1        0.1214
     19 C         141.1780  139.5812  165.7207 C.ar    1  UNL1        0.0082
     20 C         140.0809  140.5398  165.3636 C.ar    1  UNL1       -0.0018
     21 C         139.9440  141.8344  166.1088 C.ar    1  UNL1       -0.0003
     22 C         140.9042  142.1705  167.2111 C.ar    1  UNL1        0.0047
     23 C         142.0013  141.2119  167.5682 C.ar    1  UNL1        0.0817
     24 C         142.1382  139.9173  166.8230 C.ar    1  UNL1        0.0592
     25 CL        143.2353  138.9588  167.1801 Cl      1  UNL1       -0.0826
     26 C         142.9616  141.5479  168.6705 C.3     1  UNL1        0.4194
     27 F         143.9220  141.8840  169.7726 F       1  UNL1       -0.1658
     28 F         143.7021  142.4672  167.7450 F       1  UNL1       -0.1658
     29 F         142.2211  140.6286  169.5959 F       1  UNL1       -0.1658
@<TRIPOS>BOND
     1     2     1    1
     2     2     3    1
     3     3     4    1
     4     4     5   ar
     5     5     6   ar
     6     6     7   ar
     7     7     8   ar
     8     8    12    1
     9    12    13   ar
    10    13    14   ar
    11    14    15   ar
    12    15    16   ar
    13    16    17   ar
    14     5     9    1
    15     9    10    2
    16     9    11   am
    17    11    18    1
    18    18    19    1
    19    19    20   ar
    20    20    21   ar
    21    21    22   ar
    22    22    23   ar
    23    23    26    1
    24    26    27    1
    25    26    28    1
    26    26    29    1
    27    23    24   ar
    28    24    25    1
    29    11     2    1
    30    24    19   ar
    31     8     4   ar
    32    17    12   ar
@<TRIPOS>MOLECULE
*****
 29 32 0 0 0
SMALL
GASTEIGER

@<TRIPOS>ATOM
      1 C         144.9682  142.8250  162.7716 C.3     1  UNL1        0.0236
      2 C         143.5406  143.2795  162.8451 C.3     1  UNL1        0.0987
      3 C         142.8320  143.7299  161.6021 C.3     1  UNL1        0.1289
      4 N         141.4044  144.1844  161.6756 N.ar    1  UNL1       -0.2887
      5 C         140.6854  144.1887  162.9920 C.ar    1  UNL1        0.2205
      6 N         139.2903  144.6869  162.7567 N.ar    1  UNL1       -0.1239
      7 N         139.1470  144.9905  161.2948 N.ar    1  UNL1       -0.1270
      8 C         140.4536  144.6800  160.6266 C.ar    1  UNL1        0.1859
      9 C         141.3940  143.7384  164.2351 C.2     1  UNL1        0.2854
     10 O         140.6751  143.7426  165.5516 O.2     1  UNL1       -0.2665
     11 N         142.8217  143.2838  164.1615 N.am    1  UNL1       -0.2691
     12 C         140.7562  144.8374  159.1659 C.ar    1  UNL1        0.1362
     13 C         139.9289  144.1123  158.1462 C.ar    1  UNL1        0.1211
     14 N         140.2314  144.2697  156.6854 N.ar    1  UNL1       -0.2390
     15 C         141.3613  145.1521  156.2444 C.ar    1  UNL1        0.1195
     16 C         142.1886  145.8772  157.2642 C.ar    1  UNL1        0.1196
     17 N         141.8861  145.7199  158.7248 N.ar    1  UNL1       -0.2375
     18 C         143.5303  142.8335  165.4046 C.3     1  UNL1        0.1214
     19 C         143.3186  141.4433  165.9267 C.ar    1  UNL1        0.0082
     20 C         143.7549  140.2617  165.1122 C.ar    1  UNL1       -0.0018
     21 C         143.5432  138.8715  165.6344 C.ar    1  UNL1       -0.0003
     22 C         142.8952  138.6630  166.9710 C.ar    1  UNL1        0.0047
     23 C         142.4589  139.8446  167.7855 C.ar    1  UNL1        0.0817
     24 C         142.6706  141.2348  167.2634 C.ar    1  UNL1        0.0592
     25 CL        142.2343  142.4164  168.0778 Cl      1  UNL1       -0.0826
     26 C         141.8108  139.6361  169.1222 C.3     1  UNL1        0.4194
     27 F         141.1627  139.4277  170.4588 F       1  UNL1       -0.1658
     28 F         140.4661  139.5748  168.4605 F       1  UNL1       -0.1658
     29 F         143.1556  139.6975  169.7837 F       1  UNL1       -0.1658
@<TRIPOS>BOND
     1     2     1    1
     2     2     3    1
     3     3     4    1
     4     4     5   ar
     5     5     6   ar
     6     6     7   ar
     7     7     8   ar
     8     8    12    1
     9    12    13   ar
    10    13    14   ar
    11    14    15   ar
    12    15    16   ar
    13    16    17   ar
    14     5     9    1
    15     9    10    2
    16     9    11   am
    17    11    18    1
    18    18    19    1
    19    19    20   ar
    20    20    21   ar
    21    21    22   ar
    22    22    23   ar
    23    23    26    1
    24    26    27    1
    25    26    28    1
    26    26    29    1
    27    23    24   ar
    28    24    25    1
    29    11     2    1
    30    24    19   ar
    31     8     4   ar
    32    17    12   ar
@<TRIPOS>MOLECULE
*****
 29 32 0 0 0
SMALL
GASTEIGER

@<TRIPOS>ATOM
      1 C         144.8659  139.9015  164.0553 C.3     1  UNL1        0.0236
      2 C         144.1916  141.0648  163.3903 C.3     1  UNL1        0.0987
      3 C         144.2780  141.2312  161.9021 C.3     1  UNL1        0.1289
      4 N         143.6037  142.3944  161.2371 N.ar    1  UNL1       -0.2887
      5 C         142.8429  143.3911  162.0603 C.ar    1  UNL1        0.2205
      6 N         142.2850  144.4293  161.1324 N.ar    1  UNL1       -0.1239
      7 N         142.7010  144.0741  159.7357 N.ar    1  UNL1       -0.1270
      8 C         143.5159  142.8164  159.8004 C.ar    1  UNL1        0.1859
      9 C         142.7565  143.2247  163.5485 C.2     1  UNL1        0.2854
     10 O         141.9957  144.2215  164.3718 O.2     1  UNL1       -0.2665
     11 N         143.4309  142.0615  164.2135 N.am    1  UNL1       -0.2691
     12 C         144.1346  142.1057  158.6333 C.ar    1  UNL1        0.1362
     13 C         145.4241  142.6027  158.0503 C.ar    1  UNL1        0.1211
     14 N         146.0428  141.8920  156.8831 N.ar    1  UNL1       -0.2390
     15 C         145.3719  140.6843  156.2990 C.ar    1  UNL1        0.1195
     16 C         144.0822  140.1873  156.8821 C.ar    1  UNL1        0.1196
     17 N         143.4636  140.8980  158.0492 N.ar    1  UNL1       -0.2375
     18 C         143.3444  141.8950  165.7018 C.3     1  UNL1        0.1214
     19 C         142.1506  141.2236  166.3133 C.ar    1  UNL1        0.0082
     20 C         141.1145  140.5891  165.4336 C.ar    1  UNL1       -0.0018
     21 C         139.9206  139.9177  166.0452 C.ar    1  UNL1       -0.0003
     22 C         139.7628  139.8809  167.5364 C.ar    1  UNL1        0.0047
     23 C         140.7989  140.5154  168.4161 C.ar    1  UNL1        0.0817
     24 C         141.9928  141.1868  167.8045 C.ar    1  UNL1        0.0592
     25 CL        143.0288  141.8214  168.6842 Cl      1  UNL1       -0.0826
     26 C         140.6412  140.4787  169.9074 C.3     1  UNL1        0.4194
     27 F         140.4836  140.4418  171.3986 F       1  UNL1       -0.1658
     28 F         141.4039  139.1880  169.9561 F       1  UNL1       -0.1658
     29 F         139.8785  141.7694  169.8585 F       1  UNL1       -0.1658
@<TRIPOS>BOND
     1     2     1    1
     2     2     3    1
     3     3     4    1
     4     4     5   ar
     5     5     6   ar
     6     6     7   ar
     7     7     8   ar
     8     8    12    1
     9    12    13   ar
    10    13    14   ar
    11    14    15   ar
    12    15    16   ar
    13    16    17   ar
    14     5     9    1
    15     9    10    2
    16     9    11   am
    17    11    18    1
    18    18    19    1
    19    19    20   ar
    20    20    21   ar
    21    21    22   ar
    22    22    23   ar
    23    23    26    1
    24    26    27    1
    25    26    28    1
    26    26    29    1
    27    23    24   ar
    28    24    25    1
    29    11     2    1
    30    24    19   ar
    31     8     4   ar
    32    17    12   ar
@<TRIPOS>MOLECULE
*****
 29 32 0 0 0
SMALL
GASTEIGER

@<TRIPOS>ATOM
      1 C         143.0142  140.4285  163.6081 C.3     1  UNL1        0.0236
      2 C         141.5960  140.8394  163.3438 C.3     1  UNL1        0.0987
      3 C         141.2835  141.7676  162.2077 C.3     1  UNL1        0.1289
      4 N         139.8653  142.1786  161.9433 N.ar    1  UNL1       -0.2887
      5 C         138.7596  141.6613  162.8151 C.ar    1  UNL1        0.2205
      6 N         137.4676  142.2367  162.3155 N.ar    1  UNL1       -0.1239
      7 N         137.7748  143.1096  161.1350 N.ar    1  UNL1       -0.1270
      8 C         139.2566  143.0737  160.9050 C.ar    1  UNL1        0.1859
      9 C         139.0721  140.7331  163.9512 C.2     1  UNL1        0.2854
     10 O         137.9665  140.2157  164.8230 O.2     1  UNL1       -0.2665
     11 N         140.4904  140.3222  164.2155 N.am    1  UNL1       -0.2691
     12 C         139.9993  143.8046  159.8260 C.ar    1  UNL1        0.1362
     13 C         141.1040  144.7532  160.1864 C.ar    1  UNL1        0.1211
     14 N         141.8468  145.4842  159.1075 N.ar    1  UNL1       -0.2390
     15 C         141.4849  145.2665  157.6682 C.ar    1  UNL1        0.1195
     16 C         140.3801  144.3179  157.3079 C.ar    1  UNL1        0.1196
     17 N         139.6374  143.5870  158.3867 N.ar    1  UNL1       -0.2375
     18 C         140.8029  139.3939  165.3517 C.3     1  UNL1        0.1214
     19 C         140.7467  139.8930  166.7651 C.ar    1  UNL1        0.0082
     20 C         139.4641  139.8119  167.5386 C.ar    1  UNL1       -0.0018
     21 C         139.4079  140.3110  168.9521 C.ar    1  UNL1       -0.0003
     22 C         140.6342  140.8911  169.5920 C.ar    1  UNL1        0.0047
     23 C         141.9168  140.9722  168.8184 C.ar    1  UNL1        0.0817
     24 C         141.9730  140.4731  167.4050 C.ar    1  UNL1        0.0592
     25 CL        143.2556  140.5541  166.6315 Cl      1  UNL1       -0.0826
     26 C         143.1433  141.5523  169.4582 C.3     1  UNL1        0.4194
     27 F         144.3697  142.1325  170.0980 F       1  UNL1       -0.1658
     28 F         142.8980  142.8516  168.7500 F       1  UNL1       -0.1658
     29 F         143.3885  140.2530  170.1664 F       1  UNL1       -0.1658
@<TRIPOS>BOND
     1     2     1    1
     2     2     3    1
     3     3     4    1
     4     4     5   ar
     5     5     6   ar
     6     6     7   ar
     7     7     8   ar
     8     8    12    1
     9    12    13   ar
    10    13    14   ar
    11    14    15   ar
    12    15    16   ar
    13    16    17   ar
    14     5     9    1
    15     9    10    2
    16     9    11   am
    17    11    18    1
    18    18    19    1
    19    19    20   ar
    20    20    21   ar
    21    21    22   ar
    22    22    23   ar
    23    23    26    1
    24    26    27    1
    25    26    28    1
    26    26    29    1
    27    23    24   ar
    28    24    25    1
    29    11     2    1
    30    24    19   ar
    31     8     4   ar
    32    17    12   ar
@<TRIPOS>MOLECULE
*****
 29 32 0 0 0
SMALL
GASTEIGER

@<TRIPOS>ATOM
      1 C         137.6107  144.3828  163.4346 C.3     1  UNL1        0.0236
      2 C         139.0409  144.2204  163.0122 C.3     1  UNL1        0.0987
      3 C         139.4142  144.3459  161.5649 C.3     1  UNL1        0.1289
      4 N         140.8443  144.1835  161.1424 N.ar    1  UNL1       -0.2887
      5 C         141.9010  143.8956  162.1673 C.ar    1  UNL1        0.2205
      6 N         143.2179  143.7864  161.4574 N.ar    1  UNL1       -0.1239
      7 N         142.9750  144.0068  159.9937 N.ar    1  UNL1       -0.1270
      8 C         141.5080  144.2523  159.7990 C.ar    1  UNL1        0.1859
      9 C         141.5277  143.7701  163.6147 C.2     1  UNL1        0.2854
     10 O         142.5844  143.4821  164.6397 O.2     1  UNL1       -0.2665
     11 N         140.0975  143.9325  164.0371 N.am    1  UNL1       -0.2691
     12 C         140.8248  144.5195  158.4907 C.ar    1  UNL1        0.1362
     13 C         140.9039  145.8818  157.8678 C.ar    1  UNL1        0.1211
     14 N         140.2207  146.1491  156.5594 N.ar    1  UNL1       -0.2390
     15 C         139.4585  145.0541  155.8739 C.ar    1  UNL1        0.1195
     16 C         139.3794  143.6918  156.4969 C.ar    1  UNL1        0.1196
     17 N         140.0625  143.4245  157.8052 N.ar    1  UNL1       -0.2375
     18 C         139.7241  143.8069  165.4845 C.3     1  UNL1        0.1214
     19 C         139.9751  142.5211  166.2150 C.ar    1  UNL1        0.0082
     20 C         140.9089  142.4951  167.3886 C.ar    1  UNL1       -0.0018
     21 C         141.1599  141.2093  168.1191 C.ar    1  UNL1       -0.0003
     22 C         140.4771  139.9494  167.6760 C.ar    1  UNL1        0.0047
     23 C         139.5433  139.9753  166.5024 C.ar    1  UNL1        0.0817
     24 C         139.2923  141.2611  165.7719 C.ar    1  UNL1        0.0592
     25 CL        138.3586  141.2870  164.5983 Cl      1  UNL1       -0.0826
     26 C         138.8605  138.7154  166.0591 C.3     1  UNL1        0.4194
     27 F         138.1776  137.4555  165.6160 F       1  UNL1       -0.1658
     28 F         137.6639  139.0715  166.8906 F       1  UNL1       -0.1658
     29 F         140.0571  138.3593  165.2277 F       1  UNL1       -0.1658
@<TRIPOS>BOND
     1     2     1    1
     2     2     3    1
     3     3     4    1
     4     4     5   ar
     5     5     6   ar
     6     6     7   ar
     7     7     8   ar
     8     8    12    1
     9    12    13   ar
    10    13    14   ar
    11    14    15   ar
    12    15    16   ar
    13    16    17   ar
    14     5     9    1
    15     9    10    2
    16     9    11   am
    17    11    18    1
    18    18    19    1
    19    19    20   ar
    20    20    21   ar
    21    21    22   ar
    22    22    23   ar
    23    23    26    1
    24    26    27    1
    25    26    28    1
    26    26    29    1
    27    23    24   ar
    28    24    25    1
    29    11     2    1
    30    24    19   ar
    31     8     4   ar
    32    17    12   ar
@<TRIPOS>MOLECULE
*****
 29 32 0 0 0
SMALL
GASTEIGER

@<TRIPOS>ATOM
      1 C         138.0510  144.0944  163.1283 C.3     1  UNL1        0.0236
      2 C         138.3917  142.7414  162.5775 C.3     1  UNL1        0.0987
      3 C         138.1264  142.4307  161.1342 C.3     1  UNL1        0.1289
      4 N         138.4670  141.0777  160.5834 N.ar    1  UNL1       -0.2887
      5 C         139.0731  140.0354  161.4759 C.ar    1  UNL1        0.2205
      6 N         139.3017  138.7998  160.6568 N.ar    1  UNL1       -0.1239
      7 N         138.8370  139.0784  159.2580 N.ar    1  UNL1       -0.1270
      8 C         138.3211  140.4862  159.2127 C.ar    1  UNL1        0.1859
      9 C         139.3384  140.3462  162.9191 C.2     1  UNL1        0.2854
     10 O         139.9445  139.3039  163.8117 O.2     1  UNL1       -0.2665
     11 N         138.9977  141.6992  163.4699 N.am    1  UNL1       -0.2691
     12 C         137.7582  141.1806  158.0081 C.ar    1  UNL1        0.1362
     13 C         138.3195  142.5019  157.5736 C.ar    1  UNL1        0.1211
     14 N         137.7566  143.1964  156.3690 N.ar    1  UNL1       -0.2390
     15 C         136.6324  142.5694  155.5990 C.ar    1  UNL1        0.1195
     16 C         136.0711  141.2479  156.0336 C.ar    1  UNL1        0.1196
     17 N         136.6339  140.5535  157.2381 N.ar    1  UNL1       -0.2375
     18 C         139.2631  142.0100  164.9132 C.3     1  UNL1        0.1214
     19 C         140.6712  142.2061  165.3916 C.ar    1  UNL1        0.0082
     20 C         141.6826  142.8606  164.4980 C.ar    1  UNL1       -0.0018
     21 C         143.0907  143.0566  164.9763 C.ar    1  UNL1       -0.0003
     22 C         143.4874  142.5982  166.3483 C.ar    1  UNL1        0.0047
     23 C         142.4760  141.9437  167.2420 C.ar    1  UNL1        0.0817
     24 C         141.0679  141.7476  166.7636 C.ar    1  UNL1        0.0592
     25 CL        140.0565  141.0931  167.6573 Cl      1  UNL1       -0.0826
     26 C         142.8726  141.4852  168.6141 C.3     1  UNL1        0.4194
     27 F         143.2691  141.0268  169.9862 F       1  UNL1       -0.1658
     28 F         142.7088  142.8845  169.1289 F       1  UNL1       -0.1658
     29 F         143.0363  140.0859  168.0992 F       1  UNL1       -0.1658
@<TRIPOS>BOND
     1     2     1    1
     2     2     3    1
     3     3     4    1
     4     4     5   ar
     5     5     6   ar
     6     6     7   ar
     7     7     8   ar
     8     8    12    1
     9    12    13   ar
    10    13    14   ar
    11    14    15   ar
    12    15    16   ar
    13    16    17   ar
    14     5     9    1
    15     9    10    2
    16     9    11   am
    17    11    18    1
    18    18    19    1
    19    19    20   ar
    20    20    21   ar
    21    21    22   ar
    22    22    23   ar
    23    23    26    1
    24    26    27    1
    25    26    28    1
    26    26    29    1
    27    23    24   ar
    28    24    25    1
    29    11     2    1
    30    24    19   ar
    31     8     4   ar
    32    17    12   ar
@<TRIPOS>MOLECULE
*****
 29 32 0 0 0
SMALL
GASTEIGER

@<TRIPOS>ATOM
      1 C         141.3354  143.9953  163.9580 C.3     1  UNL1        0.0236
      2 C         142.3038  143.5759  162.8920 C.3     1  UNL1        0.0987
      3 C         141.9848  143.8270  161.4480 C.3     1  UNL1        0.1289
      4 N         142.9531  143.4077  160.3820 N.ar    1  UNL1       -0.2887
      5 C         144.2406  142.7371  160.7600 C.ar    1  UNL1        0.2205
      6 N         144.9950  142.4375  159.4986 N.ar    1  UNL1       -0.1239
      7 N         144.1737  142.9229  158.3410 N.ar    1  UNL1       -0.1270
      8 C         142.9118  143.5225  158.8870 C.ar    1  UNL1        0.1859
      9 C         144.5597  142.4860  162.2040 C.2     1  UNL1        0.2854
     10 O         145.8471  141.8155  162.5820 O.2     1  UNL1       -0.2665
     11 N         143.5912  142.9054  163.2700 N.am    1  UNL1       -0.2691
     12 C         141.8033  144.1301  158.0796 C.ar    1  UNL1        0.1362
     13 C         141.4744  145.5855  158.2333 C.ar    1  UNL1        0.1211
     14 N         140.3658  146.1933  157.4259 N.ar    1  UNL1       -0.2390
     15 C         139.5861  145.3456  156.4650 C.ar    1  UNL1        0.1195
     16 C         139.9150  143.8901  156.3114 C.ar    1  UNL1        0.1196
     17 N         141.0235  143.2824  157.1187 N.ar    1  UNL1       -0.2375
     18 C         143.9103  142.6543  164.7140 C.3     1  UNL1        0.1214
     19 C         143.6251  141.3134  165.3229 C.ar    1  UNL1        0.0082
     20 C         144.1523  140.0678  164.6745 C.ar    1  UNL1       -0.0018
     21 C         143.8671  138.7269  165.2834 C.ar    1  UNL1       -0.0003
     22 C         143.0547  138.6317  166.5408 C.ar    1  UNL1        0.0047
     23 C         142.5275  139.8773  167.1892 C.ar    1  UNL1        0.0817
     24 C         142.8127  141.2182  166.5803 C.ar    1  UNL1        0.0592
     25 CL        142.2855  142.4638  167.2287 Cl      1  UNL1       -0.0826
     26 C         141.7150  139.7822  168.4466 C.3     1  UNL1        0.4194
     27 F         140.9025  139.6871  169.7038 F       1  UNL1       -0.1658
     28 F         140.4594  139.7074  167.6294 F       1  UNL1       -0.1658
     29 F         142.9707  139.8570  169.2636 F       1  UNL1       -0.1658
@<TRIPOS>BOND
     1     2     1    1
     2     2     3    1
     3     3     4    1
     4     4     5   ar
     5     5     6   ar
     6     6     7   ar
     7     7     8   ar
     8     8    12    1
     9    12    13   ar
    10    13    14   ar
    11    14    15   ar
    12    15    16   ar
    13    16    17   ar
    14     5     9    1
    15     9    10    2
    16     9    11   am
    17    11    18    1
    18    18    19    1
    19    19    20   ar
    20    20    21   ar
    21    21    22   ar
    22    22    23   ar
    23    23    26    1
    24    26    27    1
    25    26    28    1
    26    26    29    1
    27    23    24   ar
    28    24    25    1
    29    11     2    1
    30    24    19   ar
    31     8     4   ar
    32    17    12   ar
