@<TRIPOS>MOLECULE
*****
 23 23 0 0 0
SMALL
GASTEIGER

@<TRIPOS>ATOM
      1 C         138.0300  140.8584  164.3373 C.3     1  UNL1        0.0177
      2 C         137.3577  141.4597  163.1388 C.3     1  UNL1        0.0721
      3 N         137.9175  142.7005  162.5087 N.3     1  UNL1       -0.2727
      4 C         138.7333  142.6019  161.2538 C.3     1  UNL1        0.0721
      5 C         138.7534  141.3225  160.4710 C.3     1  UNL1        0.0188
      6 C         137.6616  144.0400  163.1335 C.3     1  UNL1        0.0721
      7 C         137.8914  144.2386  164.6024 C.3     1  UNL1        0.0173
      8 C         139.2228  144.7236  165.0944 C.3     1  UNL1        0.0014
      9 C         140.4855  144.2190  164.4614 C.3     1  UNL1        0.0000
     10 C         141.2962  145.1230  163.5807 C.3     1  UNL1        0.0000
     11 C         143.5207  144.0261  164.3541 C.3     1  UNL1        0.0000
     12 C         142.7875  145.1773  163.7317 C.3     1  UNL1        0.0000
     13 C         139.4990  140.5573  164.3008 C.3     1  UNL1        0.0061
     14 C         140.1635  139.9194  165.4847 C.3     1  UNL1        0.0264
     15 C         140.1269  140.5987  166.8215 C.ar    1  UNL1       -0.0218
     16 C         139.4451  139.9355  167.9814 C.ar    1  UNL1        0.0020
     17 C         139.4085  140.6148  169.3182 C.ar    1  UNL1        0.0749
     18 C         140.0536  141.9573  169.4953 C.ar    1  UNL1        0.2900
     19 C         140.7354  142.6205  168.3355 C.ar    1  UNL1        0.0749
     20 C         140.7721  141.9412  166.9986 C.ar    1  UNL1        0.0020
     21 N         140.0170  142.6366  170.8322 N.pl3   1  UNL1        0.0809
     22 O         139.3316  143.9624  170.9812 O.2     1  UNL1        0.0415
     23 O         140.6658  141.9900  172.0200 O.co2   1  UNL1       -0.5760
@<TRIPOS>UNITY_ATOM_ATTR
21 1
charge 1
23 1
charge -1
@<TRIPOS>BOND
     1    11    12    1
     2    12    10    1
     3    10     9    1
     4     9     8    1
     5     8     7    1
     6     7     6    1
     7     6     3    1
     8     3     4    1
     9     4     5    1
    10     3     2    1
    11     2     1    1
    12     1    13    1
    13    13    14    1
    14    14    15    1
    15    15    16   ar
    16    16    17   ar
    17    17    18   ar
    18    18    21    1
    19    21    22    2
    20    21    23    1
    21    18    19   ar
    22    19    20   ar
    23    20    15   ar
@<TRIPOS>MOLECULE
*****
 23 23 0 0 0
SMALL
GASTEIGER

@<TRIPOS>ATOM
      1 C         142.5034  138.6368  164.3060 C.3     1  UNL1        0.0177
      2 C         141.4986  137.5854  164.6734 C.3     1  UNL1        0.0721
      3 N         140.0667  137.7372  164.2532 N.3     1  UNL1       -0.2727
      4 C         139.7349  138.0880  162.8330 C.3     1  UNL1        0.0721
      5 C         138.3074  138.0803  162.3724 C.3     1  UNL1        0.0188
      6 C         138.9664  137.5380  165.2532 C.3     1  UNL1        0.0721
      7 C         138.3337  138.7243  165.9183 C.3     1  UNL1        0.0173
      8 C         139.1746  139.9051  166.3037 C.3     1  UNL1        0.0014
      9 C         139.0791  141.1813  165.5212 C.3     1  UNL1        0.0000
     10 C         140.1591  141.5458  164.5462 C.3     1  UNL1        0.0000
     11 C         142.2629  143.0277  164.1879 C.3     1  UNL1        0.0000
     12 C         140.8430  142.8770  164.6476 C.3     1  UNL1        0.0000
     13 C         143.2004  139.4165  165.3814 C.3     1  UNL1        0.0061
     14 C         143.0607  139.0044  166.8168 C.3     1  UNL1        0.0264
     15 C         142.4107  139.9292  167.8028 C.ar    1  UNL1       -0.0218
     16 C         141.7860  139.3772  169.0498 C.ar    1  UNL1        0.0020
     17 C         141.1361  140.3021  170.0358 C.ar    1  UNL1        0.0749
     18 C         141.1108  141.7790  169.7748 C.ar    1  UNL1        0.2900
     19 C         141.7355  142.3310  168.5278 C.ar    1  UNL1        0.0749
     20 C         142.3854  141.4061  167.5418 C.ar    1  UNL1        0.0020
     21 N         140.4608  142.7038  170.7608 N.pl3   1  UNL1        0.0809
     22 O         140.2753  142.2715  172.1850 O.2     1  UNL1        0.0415
     23 O         139.9964  144.0611  170.3225 O.co2   1  UNL1       -0.5760
@<TRIPOS>UNITY_ATOM_ATTR
21 1
charge 1
23 1
charge -1
@<TRIPOS>BOND
     1    11    12    1
     2    12    10    1
     3    10     9    1
     4     9     8    1
     5     8     7    1
     6     7     6    1
     7     6     3    1
     8     3     4    1
     9     4     5    1
    10     3     2    1
    11     2     1    1
    12     1    13    1
    13    13    14    1
    14    14    15    1
    15    15    16   ar
    16    16    17   ar
    17    17    18   ar
    18    18    21    1
    19    21    22    2
    20    21    23    1
    21    18    19   ar
    22    19    20   ar
    23    20    15   ar
@<TRIPOS>MOLECULE
*****
 23 23 0 0 0
SMALL
GASTEIGER

@<TRIPOS>ATOM
      1 C         142.1948  138.3959  163.6216 C.3     1  UNL1        0.0177
      2 C         141.2070  137.2982  163.8850 C.3     1  UNL1        0.0721
      3 N         139.7434  137.6130  163.9788 N.3     1  UNL1       -0.2727
      4 C         138.9395  137.8213  162.7296 C.3     1  UNL1        0.0721
      5 C         138.9491  139.1561  162.0454 C.3     1  UNL1        0.0188
      6 C         139.0836  137.7196  165.3217 C.3     1  UNL1        0.0721
      7 C         138.3690  138.9805  165.7084 C.3     1  UNL1        0.0173
      8 C         139.1532  140.1892  166.1254 C.3     1  UNL1        0.0014
      9 C         139.6128  141.1773  165.0946 C.3     1  UNL1        0.0000
     10 C         138.9962  142.5435  165.0379 C.3     1  UNL1        0.0000
     11 C         137.7549  142.9409  162.7904 C.3     1  UNL1        0.0000
     12 C         137.7205  142.7597  164.2790 C.3     1  UNL1        0.0000
     13 C         142.6583  139.2736  164.7462 C.3     1  UNL1        0.0061
     14 C         142.6963  138.7398  166.1475 C.3     1  UNL1        0.0264
     15 C         142.6287  139.6834  167.3116 C.ar    1  UNL1       -0.0218
     16 C         142.6183  141.1648  167.0766 C.ar    1  UNL1        0.0020
     17 C         142.5507  142.1083  168.2407 C.ar    1  UNL1        0.0749
     18 C         142.4934  141.5705  169.6398 C.ar    1  UNL1        0.2900
     19 C         142.5038  140.0891  169.8747 C.ar    1  UNL1        0.0749
     20 C         142.5714  139.1455  168.7106 C.ar    1  UNL1        0.0020
     21 N         142.4258  142.5140  170.8039 N.pl3   1  UNL1        0.0809
     22 O         143.2917  143.7386  170.8280 O.2     1  UNL1        0.0415
     23 O         141.4923  142.2330  171.9438 O.co2   1  UNL1       -0.5760
@<TRIPOS>UNITY_ATOM_ATTR
21 1
charge 1
23 1
charge -1
@<TRIPOS>BOND
     1    11    12    1
     2    12    10    1
     3    10     9    1
     4     9     8    1
     5     8     7    1
     6     7     6    1
     7     6     3    1
     8     3     4    1
     9     4     5    1
    10     3     2    1
    11     2     1    1
    12     1    13    1
    13    13    14    1
    14    14    15    1
    15    15    16   ar
    16    16    17   ar
    17    17    18   ar
    18    18    21    1
    19    21    22    2
    20    21    23    1
    21    18    19   ar
    22    19    20   ar
    23    20    15   ar
@<TRIPOS>MOLECULE
*****
 23 23 0 0 0
SMALL
GASTEIGER

@<TRIPOS>ATOM
      1 C         140.4991  137.7738  164.9151 C.3     1  UNL1        0.0177
      2 C         139.0338  138.0932  164.8795 C.3     1  UNL1        0.0721
      3 N         138.4672  138.8895  163.7416 N.3     1  UNL1       -0.2727
      4 C         138.2934  138.2533  162.3944 C.3     1  UNL1        0.0721
      5 C         139.0188  138.8073  161.2041 C.3     1  UNL1        0.0188
      6 C         138.0745  140.3220  163.9509 C.3     1  UNL1        0.0721
      7 C         138.5520  141.0607  165.1659 C.3     1  UNL1        0.0173
      8 C         139.6635  142.0609  165.0469 C.3     1  UNL1        0.0014
      9 C         139.6175  143.3315  165.8428 C.3     1  UNL1        0.0000
     10 C         139.0458  144.5775  165.2341 C.3     1  UNL1        0.0000
     11 C         138.7040  144.7920  162.6675 C.3     1  UNL1        0.0000
     12 C         138.1566  144.4840  164.0297 C.3     1  UNL1        0.0000
     13 C         141.5021  138.8737  165.0997 C.3     1  UNL1        0.0061
     14 C         142.1638  139.0696  166.4315 C.3     1  UNL1        0.0264
     15 C         141.6512  140.1151  167.3771 C.ar    1  UNL1       -0.0218
     16 C         140.3501  139.9055  168.0934 C.ar    1  UNL1        0.0020
     17 C         139.8375  140.9511  169.0389 C.ar    1  UNL1        0.0749
     18 C         140.6261  142.2063  169.2682 C.ar    1  UNL1        0.2900
     19 C         141.9272  142.4159  168.5519 C.ar    1  UNL1        0.0749
     20 C         142.4398  141.3703  167.6064 C.ar    1  UNL1        0.0020
     21 N         140.1135  143.2518  170.2138 N.pl3   1  UNL1        0.0809
     22 O         140.7558  144.6067  170.2535 O.2     1  UNL1        0.0415
     23 O         138.9587  142.9424  171.1196 O.co2   1  UNL1       -0.5760
@<TRIPOS>UNITY_ATOM_ATTR
21 1
charge 1
23 1
charge -1
@<TRIPOS>BOND
     1    11    12    1
     2    12    10    1
     3    10     9    1
     4     9     8    1
     5     8     7    1
     6     7     6    1
     7     6     3    1
     8     3     4    1
     9     4     5    1
    10     3     2    1
    11     2     1    1
    12     1    13    1
    13    13    14    1
    14    14    15    1
    15    15    16   ar
    16    16    17   ar
    17    17    18   ar
    18    18    21    1
    19    21    22    2
    20    21    23    1
    21    18    19   ar
    22    19    20   ar
    23    20    15   ar
@<TRIPOS>MOLECULE
*****
 23 23 0 0 0
SMALL
GASTEIGER

@<TRIPOS>ATOM
      1 C         141.2691  137.9033  164.6128 C.3     1  UNL1        0.0177
      2 C         142.3552  138.8836  164.2816 C.3     1  UNL1        0.0721
      3 N         143.6332  138.8806  165.0670 N.3     1  UNL1       -0.2727
      4 C         143.6463  138.3668  166.4761 C.3     1  UNL1        0.0721
      5 C         142.9491  139.1335  167.5606 C.3     1  UNL1        0.0188
      6 C         144.8981  139.3916  164.4432 C.3     1  UNL1        0.0721
      7 C         144.8405  140.4879  163.4210 C.3     1  UNL1        0.0173
      8 C         145.3851  141.8469  163.7473 C.3     1  UNL1        0.0014
      9 C         144.7573  142.6647  164.8368 C.3     1  UNL1        0.0000
     10 C         143.3581  143.1806  164.6758 C.3     1  UNL1        0.0000
     11 C         142.0084  145.2337  163.8314 C.3     1  UNL1        0.0000
     12 C         143.0447  144.1747  163.5972 C.3     1  UNL1        0.0000
     13 C         139.9220  138.3964  165.0510 C.3     1  UNL1        0.0061
     14 C         139.6755  139.8679  165.2049 C.3     1  UNL1        0.0264
     15 C         139.7853  140.5095  166.5564 C.ar    1  UNL1       -0.0218
     16 C         139.2442  139.8070  167.7662 C.ar    1  UNL1        0.0020
     17 C         139.3540  140.4486  169.1177 C.ar    1  UNL1        0.0749
     18 C         140.0049  141.7925  169.2593 C.ar    1  UNL1        0.2900
     19 C         140.5460  142.4949  168.0494 C.ar    1  UNL1        0.0749
     20 C         140.4362  141.8534  166.6980 C.ar    1  UNL1        0.0020
     21 N         140.1147  142.4340  170.6107 N.pl3   1  UNL1        0.0809
     22 O         140.6327  141.6443  171.7760 O.2     1  UNL1        0.0415
     23 O         139.7064  143.8653  170.7969 O.co2   1  UNL1       -0.5760
@<TRIPOS>UNITY_ATOM_ATTR
21 1
charge 1
23 1
charge -1
@<TRIPOS>BOND
     1    11    12    1
     2    12    10    1
     3    10     9    1
     4     9     8    1
     5     8     7    1
     6     7     6    1
     7     6     3    1
     8     3     4    1
     9     4     5    1
    10     3     2    1
    11     2     1    1
    12     1    13    1
    13    13    14    1
    14    14    15    1
    15    15    16   ar
    16    16    17   ar
    17    17    18   ar
    18    18    21    1
    19    21    22    2
    20    21    23    1
    21    18    19   ar
    22    19    20   ar
    23    20    15   ar
@<TRIPOS>MOLECULE
*****
 23 23 0 0 0
SMALL
GASTEIGER

@<TRIPOS>ATOM
      1 C         141.2433  137.6267  164.8008 C.3     1  UNL1        0.0177
      2 C         140.2284  138.2728  163.9050 C.3     1  UNL1        0.0721
      3 N         138.9582  138.8217  164.4841 N.3     1  UNL1       -0.2727
      4 C         138.4083  138.2539  165.7589 C.3     1  UNL1        0.0721
      5 C         138.4158  139.0785  167.0119 C.3     1  UNL1        0.0188
      6 C         138.2380  139.9386  163.7883 C.3     1  UNL1        0.0721
      7 C         137.9669  141.2231  164.5139 C.3     1  UNL1        0.0173
      8 C         138.4969  142.5172  163.9715 C.3     1  UNL1        0.0014
      9 C         138.3516  143.7799  164.7680 C.3     1  UNL1        0.0000
     10 C         139.4416  144.8101  164.7461 C.3     1  UNL1        0.0000
     11 C         141.8321  145.2097  163.8101 C.3     1  UNL1        0.0000
     12 C         140.3870  144.8772  163.5834 C.3     1  UNL1        0.0000
     13 C         142.3242  138.4552  165.4295 C.3     1  UNL1        0.0061
     14 C         142.1985  139.9494  165.4659 C.3     1  UNL1        0.0264
     15 C         141.7583  140.6346  166.7256 C.ar    1  UNL1       -0.0218
     16 C         142.0643  140.0207  168.0595 C.ar    1  UNL1        0.0020
     17 C         141.6241  140.7059  169.3192 C.ar    1  UNL1        0.0749
     18 C         140.8777  142.0049  169.2449 C.ar    1  UNL1        0.2900
     19 C         140.5717  142.6187  167.9109 C.ar    1  UNL1        0.0749
     20 C         141.0120  141.9336  166.6513 C.ar    1  UNL1        0.0020
     21 N         140.4375  142.6900  170.5045 N.pl3   1  UNL1        0.0809
     22 O         139.8230  144.0568  170.4394 O.2     1  UNL1        0.0415
     23 O         140.6116  142.0084  171.8293 O.co2   1  UNL1       -0.5760
@<TRIPOS>UNITY_ATOM_ATTR
21 1
charge 1
23 1
charge -1
@<TRIPOS>BOND
     1    11    12    1
     2    12    10    1
     3    10     9    1
     4     9     8    1
     5     8     7    1
     6     7     6    1
     7     6     3    1
     8     3     4    1
     9     4     5    1
    10     3     2    1
    11     2     1    1
    12     1    13    1
    13    13    14    1
    14    14    15    1
    15    15    16   ar
    16    16    17   ar
    17    17    18   ar
    18    18    21    1
    19    21    22    2
    20    21    23    1
    21    18    19   ar
    22    19    20   ar
    23    20    15   ar
@<TRIPOS>MOLECULE
*****
 23 23 0 0 0
SMALL
GASTEIGER

@<TRIPOS>ATOM
      1 C         142.5084  141.9173  162.8988 C.3     1  UNL1        0.0177
      2 C         142.3087  140.6378  162.1418 C.3     1  UNL1        0.0721
      3 N         142.9889  139.3817  162.5993 N.3     1  UNL1       -0.2727
      4 C         144.4418  139.4084  162.9714 C.3     1  UNL1        0.0721
      5 C         144.8455  139.4457  164.4156 C.3     1  UNL1        0.0188
      6 C         142.2163  138.0987  162.6847 C.3     1  UNL1        0.0721
      7 C         141.6558  137.6470  164.0006 C.3     1  UNL1        0.0173
      8 C         141.0499  138.6466  164.9406 C.3     1  UNL1        0.0014
      9 C         139.6908  139.2146  164.6574 C.3     1  UNL1        0.0000
     10 C         138.9398  139.9364  165.7367 C.3     1  UNL1        0.0000
     11 C         137.4708  138.3147  167.1374 C.3     1  UNL1        0.0000
     12 C         138.6427  139.2453  167.0344 C.3     1  UNL1        0.0000
     13 C         141.8515  142.1094  164.2336 C.3     1  UNL1        0.0061
     14 C         142.6850  142.1566  165.4798 C.3     1  UNL1        0.0264
     15 C         142.0742  141.8059  166.8042 C.ar    1  UNL1       -0.0218
     16 C         142.5739  140.6162  167.5691 C.ar    1  UNL1        0.0020
     17 C         141.9631  140.2656  168.8935 C.ar    1  UNL1        0.0749
     18 C         140.8528  141.1046  169.4531 C.ar    1  UNL1        0.2900
     19 C         140.3532  142.2943  168.6882 C.ar    1  UNL1        0.0749
     20 C         140.9639  142.6449  167.3638 C.ar    1  UNL1        0.0020
     21 N         140.2421  140.7540  170.7775 N.pl3   1  UNL1        0.0809
     22 O         140.6637  141.4881  172.0157 O.2     1  UNL1        0.0415
     23 O         139.2097  139.6692  170.8637 O.co2   1  UNL1       -0.5760
@<TRIPOS>UNITY_ATOM_ATTR
21 1
charge 1
23 1
charge -1
@<TRIPOS>BOND
     1    11    12    1
     2    12    10    1
     3    10     9    1
     4     9     8    1
     5     8     7    1
     6     7     6    1
     7     6     3    1
     8     3     4    1
     9     4     5    1
    10     3     2    1
    11     2     1    1
    12     1    13    1
    13    13    14    1
    14    14    15    1
    15    15    16   ar
    16    16    17   ar
    17    17    18   ar
    18    18    21    1
    19    21    22    2
    20    21    23    1
    21    18    19   ar
    22    19    20   ar
    23    20    15   ar
@<TRIPOS>MOLECULE
*****
 23 23 0 0 0
SMALL
GASTEIGER

@<TRIPOS>ATOM
      1 C         142.6540  139.2336  165.8351 C.3     1  UNL1        0.0177
      2 C         143.7960  139.3551  164.8700 C.3     1  UNL1        0.0721
      3 N         143.8944  140.5523  163.9716 N.3     1  UNL1       -0.2727
      4 C         143.2599  140.5244  162.6127 C.3     1  UNL1        0.0721
      5 C         141.8664  141.0465  162.4248 C.3     1  UNL1        0.0188
      6 C         144.6274  141.7773  164.4321 C.3     1  UNL1        0.0721
      7 C         143.8886  142.8681  165.1492 C.3     1  UNL1        0.0173
      8 C         143.8408  144.2497  164.5672 C.3     1  UNL1        0.0014
      9 C         142.5564  144.7825  164.0045 C.3     1  UNL1        0.0000
     10 C         141.2628  144.0803  164.2931 C.3     1  UNL1        0.0000
     11 C         138.9038  144.6987  165.1891 C.3     1  UNL1        0.0000
     12 C         139.9616  144.8088  164.1313 C.3     1  UNL1        0.0000
     13 C         141.3021  138.8043  165.3471 C.3     1  UNL1        0.0061
     14 C         140.0857  139.6044  165.7079 C.3     1  UNL1        0.0264
     15 C         140.0866  140.4547  166.9436 C.ar    1  UNL1       -0.0218
     16 C         139.5514  139.9052  168.2325 C.ar    1  UNL1        0.0020
     17 C         139.5523  140.7556  169.4682 C.ar    1  UNL1        0.0749
     18 C         140.0884  142.1555  169.4149 C.ar    1  UNL1        0.2900
     19 C         140.6237  142.7050  168.1259 C.ar    1  UNL1        0.0749
     20 C         140.6228  141.8546  166.8902 C.ar    1  UNL1        0.0020
     21 N         140.0893  143.0058  170.6506 N.pl3   1  UNL1        0.0809
     22 O         140.3180  142.3775  171.9932 O.2     1  UNL1        0.0415
     23 O         139.8615  144.4845  170.5435 O.co2   1  UNL1       -0.5760
@<TRIPOS>UNITY_ATOM_ATTR
21 1
charge 1
23 1
charge -1
@<TRIPOS>BOND
     1    11    12    1
     2    12    10    1
     3    10     9    1
     4     9     8    1
     5     8     7    1
     6     7     6    1
     7     6     3    1
     8     3     4    1
     9     4     5    1
    10     3     2    1
    11     2     1    1
    12     1    13    1
    13    13    14    1
    14    14    15    1
    15    15    16   ar
    16    16    17   ar
    17    17    18   ar
    18    18    21    1
    19    21    22    2
    20    21    23    1
    21    18    19   ar
    22    19    20   ar
    23    20    15   ar
@<TRIPOS>MOLECULE
*****
 23 23 0 0 0
SMALL
GASTEIGER

@<TRIPOS>ATOM
      1 C         142.2060  144.2010  164.0804 C.3     1  UNL1        0.0177
      2 C         141.2176  143.2873  163.4183 C.3     1  UNL1        0.0721
      3 N         139.7463  143.5160  163.5999 N.3     1  UNL1       -0.2727
      4 C         139.2514  144.8279  164.1329 C.3     1  UNL1        0.0721
      5 C         138.7659  144.9271  165.5486 C.3     1  UNL1        0.0188
      6 C         138.7699  142.4329  163.2485 C.3     1  UNL1        0.0721
      7 C         138.1241  141.6241  164.3342 C.3     1  UNL1        0.0173
      8 C         138.0821  140.1283  164.2312 C.3     1  UNL1        0.0014
      9 C         138.5487  139.2840  165.3799 C.3     1  UNL1        0.0000
     10 C         138.9410  137.8547  165.1494 C.3     1  UNL1        0.0000
     11 C         141.4787  138.4103  165.1893 C.3     1  UNL1        0.0000
     12 C         140.3510  137.5167  164.7652 C.3     1  UNL1        0.0000
     13 C         143.3908  143.6287  164.8006 C.3     1  UNL1        0.0061
     14 C         143.2843  142.2944  165.4776 C.3     1  UNL1        0.0264
     15 C         142.4804  142.1539  166.7362 C.ar    1  UNL1       -0.0218
     16 C         141.0283  141.7854  166.6615 C.ar    1  UNL1        0.0020
     17 C         140.2245  141.6450  167.9201 C.ar    1  UNL1        0.0749
     18 C         140.8727  141.8731  169.2534 C.ar    1  UNL1        0.2900
     19 C         142.3247  142.2416  169.3281 C.ar    1  UNL1        0.0749
     20 C         143.1286  142.3820  168.0695 C.ar    1  UNL1        0.0020
     21 N         140.0688  141.7326  170.5120 N.pl3   1  UNL1        0.0809
     22 O         140.6531  142.1578  171.8264 O.2     1  UNL1        0.0415
     23 O         138.6807  141.1671  170.4561 O.co2   1  UNL1       -0.5760
@<TRIPOS>UNITY_ATOM_ATTR
21 1
charge 1
23 1
charge -1
@<TRIPOS>BOND
     1    11    12    1
     2    12    10    1
     3    10     9    1
     4     9     8    1
     5     8     7    1
     6     7     6    1
     7     6     3    1
     8     3     4    1
     9     4     5    1
    10     3     2    1
    11     2     1    1
    12     1    13    1
    13    13    14    1
    14    14    15    1
    15    15    16   ar
    16    16    17   ar
    17    17    18   ar
    18    18    21    1
    19    21    22    2
    20    21    23    1
    21    18    19   ar
    22    19    20   ar
    23    20    15   ar
