@<TRIPOS>MOLECULE
*****
 43 47 0 0 0
SMALL
GASTEIGER

@<TRIPOS>ATOM
      1 C         140.1625  144.6464  162.8115 C.ar    1  UNL1       -0.0052
      2 C         139.3851  145.0518  164.0285 C.ar    1  UNL1       -0.0029
      3 C         139.3923  144.1787  165.2483 C.ar    1  UNL1       -0.0006
      4 C         140.1770  142.9004  165.2510 C.ar    1  UNL1       -0.0041
      5 C         140.9545  142.4950  164.0339 C.ar    1  UNL1       -0.0231
      6 C         140.9472  143.3680  162.8142 C.ar    1  UNL1       -0.0085
      7 C         141.7247  142.9627  161.5971 C.3     1  UNL1        0.1211
      8 N         142.5094  141.6843  161.5998 N.am    1  UNL1       -0.2598
      9 C         143.2869  141.2790  160.3827 C.2     1  UNL1        0.3041
     10 O         144.0715  140.0006  160.3854 O.2     1  UNL1       -0.2526
     11 N         143.2796  142.1520  159.1630 N.am    1  UNL1       -0.2919
     12 C         142.5166  140.8113  162.8195 C.3     1  UNL1        0.0999
     13 C         141.7391  141.2166  164.0366 C.3     1  UNL1        0.0476
     14 H         142.7646  142.9910  159.1612 H       1  UNL1        0.1508
     15 C         140.1842  142.0274  166.4707 C.ar    1  UNL1        0.0027
     16 C         139.4044  140.7460  166.4805 C.ar    1  UNL1        0.0002
     17 C         139.4117  139.8729  167.7003 C.ar    1  UNL1        0.0031
     18 C         140.1987  140.2813  168.9102 C.ar    1  UNL1        0.0372
     19 C         140.9784  141.5627  168.9004 C.ar    1  UNL1        0.1468
     20 C         140.9711  142.4357  167.6806 C.ar    1  UNL1        0.0372
     21 O         141.7654  141.9710  170.1104 O.3     1  UNL1       -0.4045
     22 C         143.2283  142.2779  169.9850 C.3     1  UNL1        0.5753
     23 F         144.6912  142.5847  169.8597 F       1  UNL1       -0.1328
     24 F         143.4507  140.9484  169.3269 F       1  UNL1       -0.1328
     25 F         143.0059  143.6073  170.6432 F       1  UNL1       -0.1328
     26 C         144.0571  141.7467  157.9459 C.3     1  UNL1        0.0583
     27 C         145.2339  142.5384  158.4340 C.3     1  UNL1        0.0197
     28 C         142.8803  140.9549  157.4579 C.3     1  UNL1        0.0197
     29 C         144.8345  141.3413  156.7288 C.3     1  UNL1        0.0197
     30 C         140.1553  145.5195  161.5918 C.3     1  UNL1        0.1161
     31 C         140.4918  145.0502  159.0587 C.2     1  UNL1        0.2227
     32 O         141.8645  145.6505  159.1298 O.2     1  UNL1       -0.2751
     33 N         139.6372  144.9846  160.2897 N.am    1  UNL1       -0.3004
     34 H         138.7362  144.5906  160.2430 H       1  UNL1        0.1497
     35 C         139.0890  143.5683  157.0011 C.3     1  UNL1        0.0883
     36 C         139.9606  144.5359  156.2568 C.3     1  UNL1        0.0194
     37 C         139.9736  144.5153  157.7566 C.3     1  UNL1        0.0858
     38 C         134.8559  140.6435  155.8151 C.3     1  UNL1        0.0773
     39 C         136.1293  141.1185  156.4496 C.ar    1  UNL1        0.1809
     40 N         136.9004  140.4050  157.5203 N.ar    1  UNL1       -0.0606
     41 O         138.1030  141.2359  157.8573 O.2     1  UNL1       -0.3374
     42 C         138.0751  142.4628  156.9948 C.ar    1  UNL1        0.2363
     43 N         136.8553  142.3902  156.1248 N.ar    1  UNL1       -0.1949
@<TRIPOS>BOND
     1    38    39    1
     2    39    40   ar
     3    40    41   ar
     4    41    42   ar
     5    35    42    1
     6    35    36    1
     7    36    37    1
     8    37    31    1
     9    31    32    2
    10    31    33   am
    11    33    30    1
    12    30     1    1
    13     1     2   ar
    14     2     3   ar
    15     3     4   ar
    16     4    15    1
    17    15    16   ar
    18    16    17   ar
    19    17    18   ar
    20    18    19   ar
    21    19    21    1
    22    21    22    1
    23    22    23    1
    24    22    24    1
    25    22    25    1
    26    19    20   ar
    27     4     5   ar
    28     5     6   ar
    29     6     7    1
    30     7     8    1
    31     8     9   am
    32     9    10    2
    33     9    11   am
    34    11    26    1
    35    26    27    1
    36    26    28    1
    37    26    29    1
    38     8    12    1
    39    12    13    1
    40    42    43   ar
    41    43    39   ar
    42    37    35    1
    43     6     1   ar
    44    20    15   ar
    45    13     5    1
    46    33    34    1
    47    11    14    1
@<TRIPOS>MOLECULE
*****
 43 47 0 0 0
SMALL
GASTEIGER

@<TRIPOS>ATOM
      1 C         139.4625  139.4122  160.5676 C.ar    1  UNL1       -0.0052
      2 C         138.9782  138.9855  159.2136 C.ar    1  UNL1       -0.0029
      3 C         139.9562  138.4945  158.1877 C.ar    1  UNL1       -0.0006
      4 C         141.4184  138.4302  158.5158 C.ar    1  UNL1       -0.0041
      5 C         141.9027  138.8570  159.8698 C.ar    1  UNL1       -0.0231
      6 C         140.9248  139.3479  160.8957 C.ar    1  UNL1       -0.0085
      7 C         141.4090  139.7747  162.2497 C.3     1  UNL1        0.1211
      8 N         142.8713  139.7104  162.5778 N.am    1  UNL1       -0.2598
      9 C         143.3556  140.1371  163.9319 C.2     1  UNL1        0.3041
     10 O         144.8178  140.0729  164.2600 O.2     1  UNL1       -0.2526
     11 N         142.3776  140.6281  164.9578 N.am    1  UNL1       -0.2919
     12 C         143.8492  139.2194  161.5519 C.3     1  UNL1        0.0999
     13 C         143.3650  138.7927  160.1979 C.3     1  UNL1        0.0476
     14 H         141.4179  140.6703  164.7424 H       1  UNL1        0.1508
     15 C         142.3964  137.9393  157.4898 C.ar    1  UNL1        0.0027
     16 C         143.0913  138.9161  156.5881 C.ar    1  UNL1        0.0002
     17 C         144.0692  138.4252  155.5622 C.ar    1  UNL1        0.0031
     18 C         144.3524  136.9573  155.4380 C.ar    1  UNL1        0.0372
     19 C         143.6575  135.9805  156.3397 C.ar    1  UNL1        0.1468
     20 C         142.6795  136.4715  157.3656 C.ar    1  UNL1        0.0372
     21 O         143.9407  134.5127  156.2155 O.3     1  UNL1       -0.4045
     22 C         142.8066  133.5360  156.1151 C.3     1  UNL1        0.5753
     23 F         141.6726  132.5593  156.0147 F       1  UNL1       -0.1328
     24 F         142.3834  134.1607  154.8187 F       1  UNL1       -0.1328
     25 F         143.2299  132.9113  157.4115 F       1  UNL1       -0.1328
     26 C         142.8619  141.0548  166.3118 C.3     1  UNL1        0.0583
     27 C         143.0243  142.4594  165.8110 C.3     1  UNL1        0.0197
     28 C         142.6994  139.6503  166.8125 C.3     1  UNL1        0.0197
     29 C         143.3461  141.4815  167.6659 C.3     1  UNL1        0.0197
     30 C         138.4845  139.9031  161.5935 C.3     1  UNL1        0.1161
     31 C         138.5208  140.0347  164.1880 C.2     1  UNL1        0.2227
     32 O         138.7326  141.5176  164.1099 O.2     1  UNL1       -0.2751
     33 N         138.3967  139.2275  162.9298 N.am    1  UNL1       -0.3004
     34 H         138.2577  138.2542  162.9811 H       1  UNL1        0.1497
     35 C         138.6592  139.3781  167.0070 C.3     1  UNL1        0.0883
     36 C         138.0548  138.1694  166.3561 C.3     1  UNL1        0.0194
     37 C         138.4330  139.3589  165.5243 C.3     1  UNL1        0.0858
     38 C         140.9420  142.9087  170.2014 C.3     1  UNL1        0.0773
     39 C         140.1881  141.7099  169.7071 C.ar    1  UNL1        0.1809
     40 N         139.5654  140.6461  170.5618 N.ar    1  UNL1       -0.0606
     41 O         138.9168  139.6430  169.6544 O.2     1  UNL1       -0.3374
     42 C         139.1388  140.0870  168.2388 C.ar    1  UNL1        0.2363
     43 N         139.9244  141.3644  168.2715 N.ar    1  UNL1       -0.1949
@<TRIPOS>BOND
     1    38    39    1
     2    39    40   ar
     3    40    41   ar
     4    41    42   ar
     5    35    42    1
     6    35    36    1
     7    36    37    1
     8    37    31    1
     9    31    32    2
    10    31    33   am
    11    33    30    1
    12    30     1    1
    13     1     2   ar
    14     2     3   ar
    15     3     4   ar
    16     4    15    1
    17    15    16   ar
    18    16    17   ar
    19    17    18   ar
    20    18    19   ar
    21    19    21    1
    22    21    22    1
    23    22    23    1
    24    22    24    1
    25    22    25    1
    26    19    20   ar
    27     4     5   ar
    28     5     6   ar
    29     6     7    1
    30     7     8    1
    31     8     9   am
    32     9    10    2
    33     9    11   am
    34    11    26    1
    35    26    27    1
    36    26    28    1
    37    26    29    1
    38     8    12    1
    39    12    13    1
    40    42    43   ar
    41    43    39   ar
    42    37    35    1
    43     6     1   ar
    44    20    15   ar
    45    13     5    1
    46    33    34    1
    47    11    14    1
@<TRIPOS>MOLECULE
*****
 43 47 0 0 0
SMALL
GASTEIGER

@<TRIPOS>ATOM
      1 C         142.5148  139.0913  161.3751 C.ar    1  UNL1       -0.0052
      2 C         142.6758  138.0312  162.4240 C.ar    1  UNL1       -0.0029
      3 C         141.9269  138.1379  163.7193 C.ar    1  UNL1       -0.0006
      4 C         141.0171  139.3047  163.9657 C.ar    1  UNL1       -0.0041
      5 C         140.8560  140.3649  162.9167 C.ar    1  UNL1       -0.0231
      6 C         141.6049  140.2581  161.6214 C.ar    1  UNL1       -0.0085
      7 C         141.4439  141.3182  160.5725 C.3     1  UNL1        0.1211
      8 N         140.5341  142.4850  160.8188 N.am    1  UNL1       -0.2598
      9 C         140.3731  143.5451  159.7699 C.2     1  UNL1        0.3041
     10 O         139.4632  144.7119  160.0162 O.2     1  UNL1       -0.2526
     11 N         141.1219  143.4384  158.4746 N.am    1  UNL1       -0.2919
     12 C         139.7852  142.5917  162.1141 C.3     1  UNL1        0.0999
     13 C         139.9462  141.5316  163.1631 C.3     1  UNL1        0.0476
     14 H         141.7191  142.6726  158.3129 H       1  UNL1        0.1508
     15 C         140.2682  139.4114  165.2610 C.ar    1  UNL1        0.0027
     16 C         138.9113  138.7864  165.3965 C.ar    1  UNL1        0.0002
     17 C         138.1624  138.8932  166.6918 C.ar    1  UNL1        0.0031
     18 C         138.7704  139.6248  167.8516 C.ar    1  UNL1        0.0372
     19 C         140.1273  140.2498  167.7160 C.ar    1  UNL1        0.1468
     20 C         140.8761  140.1430  166.4207 C.ar    1  UNL1        0.0372
     21 O         140.7353  140.9814  168.8758 O.3     1  UNL1       -0.4045
     22 C         140.4456  142.4393  169.0780 C.3     1  UNL1        0.5753
     23 F         140.1559  143.8971  169.2801 F       1  UNL1       -0.1328
     24 F         139.3326  142.0874  170.0200 F       1  UNL1       -0.1328
     25 F         141.5586  142.7911  168.1359 F       1  UNL1       -0.1328
     26 C         140.9610  144.4985  157.4256 C.3     1  UNL1        0.0583
     27 C         139.8383  143.7179  156.8091 C.3     1  UNL1        0.0197
     28 C         142.0836  145.2791  158.0422 C.3     1  UNL1        0.0197
     29 C         140.8000  145.5586  156.3767 C.3     1  UNL1        0.0197
     30 C         143.2637  138.9846  160.0798 C.3     1  UNL1        0.1161
     31 C         142.4480  137.9671  157.8327 C.2     1  UNL1        0.2227
     32 O         142.0408  139.3320  157.3625 O.2     1  UNL1       -0.2751
     33 N         143.0595  137.7934  159.1913 N.am    1  UNL1       -0.3004
     34 H         143.3268  136.8975  159.4999 H       1  UNL1        0.1497
     35 C         142.5928  135.3695  156.5564 C.3     1  UNL1        0.0883
     36 C         141.5413  136.1189  155.7932 C.3     1  UNL1        0.0194
     37 C         142.2439  136.7759  156.9442 C.3     1  UNL1        0.0858
     38 C         144.9450  130.7083  155.7683 C.3     1  UNL1        0.0773
     39 C         144.4826  131.9823  156.4109 C.ar    1  UNL1        0.1809
     40 N         144.8090  132.4368  157.8027 N.ar    1  UNL1       -0.0606
     41 O         144.1408  133.7610  158.0266 O.2     1  UNL1       -0.3374
     42 C         143.4015  134.1249  156.7732 C.ar    1  UNL1        0.2363
     43 N         143.6127  133.0256  155.7747 N.ar    1  UNL1       -0.1949
@<TRIPOS>BOND
     1    38    39    1
     2    39    40   ar
     3    40    41   ar
     4    41    42   ar
     5    35    42    1
     6    35    36    1
     7    36    37    1
     8    37    31    1
     9    31    32    2
    10    31    33   am
    11    33    30    1
    12    30     1    1
    13     1     2   ar
    14     2     3   ar
    15     3     4   ar
    16     4    15    1
    17    15    16   ar
    18    16    17   ar
    19    17    18   ar
    20    18    19   ar
    21    19    21    1
    22    21    22    1
    23    22    23    1
    24    22    24    1
    25    22    25    1
    26    19    20   ar
    27     4     5   ar
    28     5     6   ar
    29     6     7    1
    30     7     8    1
    31     8     9   am
    32     9    10    2
    33     9    11   am
    34    11    26    1
    35    26    27    1
    36    26    28    1
    37    26    29    1
    38     8    12    1
    39    12    13    1
    40    42    43   ar
    41    43    39   ar
    42    37    35    1
    43     6     1   ar
    44    20    15   ar
    45    13     5    1
    46    33    34    1
    47    11    14    1
@<TRIPOS>MOLECULE
*****
 43 47 0 0 0
SMALL
GASTEIGER

@<TRIPOS>ATOM
      1 C         140.3600  144.4699  162.2263 C.ar    1  UNL1       -0.0052
      2 C         139.4236  144.7682  163.3595 C.ar    1  UNL1       -0.0029
      3 C         139.0681  143.6918  164.3419 C.ar    1  UNL1       -0.0006
      4 C         139.6490  142.3172  164.1911 C.ar    1  UNL1       -0.0041
      5 C         140.5854  142.0188  163.0578 C.ar    1  UNL1       -0.0231
      6 C         140.9409  143.0951  162.0754 C.ar    1  UNL1       -0.0085
      7 C         141.8772  142.7968  160.9422 C.3     1  UNL1        0.1211
      8 N         142.4581  141.4221  160.7914 N.am    1  UNL1       -0.2598
      9 C         143.3945  141.1237  159.6582 C.2     1  UNL1        0.3041
     10 O         143.9754  139.7490  159.5074 O.2     1  UNL1       -0.2526
     11 N         143.7500  142.2001  158.6758 N.am    1  UNL1       -0.2919
     12 C         142.1026  140.3457  161.7738 C.3     1  UNL1        0.0999
     13 C         141.1662  140.6441  162.9070 C.3     1  UNL1        0.0476
     14 H         143.3687  143.1023  158.7748 H       1  UNL1        0.1508
     15 C         139.2935  141.2408  165.1735 C.ar    1  UNL1        0.0027
     16 C         138.3713  140.1296  164.7674 C.ar    1  UNL1        0.0002
     17 C         138.0158  139.0532  165.7498 C.ar    1  UNL1        0.0031
     18 C         138.5825  139.0881  167.1382 C.ar    1  UNL1        0.0372
     19 C         139.5046  140.1993  167.5442 C.ar    1  UNL1        0.1468
     20 C         139.8601  141.2756  166.5618 C.ar    1  UNL1        0.0372
     21 O         140.0713  140.2342  168.9327 O.3     1  UNL1       -0.4045
     22 C         139.7705  141.3928  169.8366 C.3     1  UNL1        0.5753
     23 F         139.4698  142.5515  170.7405 F       1  UNL1       -0.1328
     24 F         141.1298  141.9629  169.5582 F       1  UNL1       -0.1328
     25 F         138.4113  140.8228  170.1150 F       1  UNL1       -0.1328
     26 C         144.6863  141.9017  157.5426 C.3     1  UNL1        0.0583
     27 C         145.8047  142.5625  158.2927 C.3     1  UNL1        0.0197
     28 C         143.5680  141.2410  156.7925 C.3     1  UNL1        0.0197
     29 C         145.6227  141.6034  156.4093 C.3     1  UNL1        0.0197
     30 C         140.7154  145.5462  161.2439 C.3     1  UNL1        0.1161
     31 C         140.7507  145.4602  158.6475 C.2     1  UNL1        0.2227
     32 O         142.2282  145.2032  158.6761 O.2     1  UNL1       -0.2751
     33 N         139.9943  145.6317  159.9314 N.am    1  UNL1       -0.3004
     34 H         139.0246  145.8003  159.9127 H       1  UNL1        0.1497
     35 C         139.5627  146.3518  156.1594 C.3     1  UNL1        0.0883
     36 C         139.2473  144.8875  156.2373 C.3     1  UNL1        0.0194
     37 C         140.0295  145.5456  157.3350 C.3     1  UNL1        0.0858
     38 C         138.5432  151.4093  155.0354 C.3     1  UNL1        0.0773
     39 C         139.0066  149.9875  154.9191 C.ar    1  UNL1        0.1809
     40 N         139.6747  149.3729  153.7250 N.ar    1  UNL1       -0.0606
     41 O         139.9643  147.9361  154.0442 O.2     1  UNL1       -0.3374
     42 C         139.4752  147.6628  155.4357 C.ar    1  UNL1        0.2363
     43 N         138.8834  148.9306  155.9764 N.ar    1  UNL1       -0.1949
@<TRIPOS>BOND
     1    38    39    1
     2    39    40   ar
     3    40    41   ar
     4    41    42   ar
     5    35    42    1
     6    35    36    1
     7    36    37    1
     8    37    31    1
     9    31    32    2
    10    31    33   am
    11    33    30    1
    12    30     1    1
    13     1     2   ar
    14     2     3   ar
    15     3     4   ar
    16     4    15    1
    17    15    16   ar
    18    16    17   ar
    19    17    18   ar
    20    18    19   ar
    21    19    21    1
    22    21    22    1
    23    22    23    1
    24    22    24    1
    25    22    25    1
    26    19    20   ar
    27     4     5   ar
    28     5     6   ar
    29     6     7    1
    30     7     8    1
    31     8     9   am
    32     9    10    2
    33     9    11   am
    34    11    26    1
    35    26    27    1
    36    26    28    1
    37    26    29    1
    38     8    12    1
    39    12    13    1
    40    42    43   ar
    41    43    39   ar
    42    37    35    1
    43     6     1   ar
    44    20    15   ar
    45    13     5    1
    46    33    34    1
    47    11    14    1
@<TRIPOS>MOLECULE
*****
 43 47 0 0 0
SMALL
GASTEIGER

@<TRIPOS>ATOM
      1 C         139.8636  138.8555  161.4742 C.ar    1  UNL1       -0.0052
      2 C         139.5968  137.7537  162.4564 C.ar    1  UNL1       -0.0029
      3 C         140.0035  137.9134  163.8914 C.ar    1  UNL1       -0.0006
      4 C         140.6769  139.1749  164.3442 C.ar    1  UNL1       -0.0041
      5 C         140.9438  140.2768  163.3619 C.ar    1  UNL1       -0.0231
      6 C         140.5372  140.1171  161.9270 C.ar    1  UNL1       -0.0085
      7 C         140.8040  141.2189  160.9448 C.3     1  UNL1        0.1211
      8 N         141.4775  142.4804  161.3975 N.am    1  UNL1       -0.2598
      9 C         141.7443  143.5823  160.4153 C.2     1  UNL1        0.3041
     10 O         142.4178  144.8438  160.8681 O.2     1  UNL1       -0.2526
     11 N         141.3377  143.4226  158.9804 N.am    1  UNL1       -0.2919
     12 C         141.8841  142.6400  162.8325 C.3     1  UNL1        0.0999
     13 C         141.6173  141.5382  163.8147 C.3     1  UNL1        0.0476
     14 H         140.8956  142.5947  158.6832 H       1  UNL1        0.1508
     15 C         141.0836  139.3345  165.7791 C.ar    1  UNL1        0.0027
     16 C         142.4728  138.9681  166.2102 C.ar    1  UNL1        0.0002
     17 C         142.8795  139.1277  167.6452 C.ar    1  UNL1        0.0031
     18 C         141.8969  139.6538  168.6491 C.ar    1  UNL1        0.0372
     19 C         140.5077  140.0203  168.2180 C.ar    1  UNL1        0.1468
     20 C         140.1011  139.8606  166.7830 C.ar    1  UNL1        0.0372
     21 O         139.5251  140.5464  169.2219 O.3     1  UNL1       -0.4045
     22 C         139.9947  141.4311  170.3385 C.3     1  UNL1        0.5753
     23 F         140.4642  142.3158  171.4551 F       1  UNL1       -0.1328
     24 F         139.9156  142.6212  169.4288 F       1  UNL1       -0.1328
     25 F         140.0737  140.2411  171.2482 F       1  UNL1       -0.1328
     26 C         141.6045  144.5244  157.9982 C.3     1  UNL1        0.0583
     27 C         142.9145  143.8878  157.6398 C.3     1  UNL1        0.0197
     28 C         140.2945  145.1611  158.3565 C.3     1  UNL1        0.0197
     29 C         141.8713  145.6263  157.0159 C.3     1  UNL1        0.0197
     30 C         139.4570  138.6959  160.0392 C.3     1  UNL1        0.1161
     31 C         140.0883  138.0755  157.5966 C.2     1  UNL1        0.2227
     32 O         138.8636  138.7850  157.0999 O.2     1  UNL1       -0.2751
     33 N         140.3850  138.0310  159.0663 N.am    1  UNL1       -0.3004
     34 H         141.1888  137.5654  159.3922 H       1  UNL1        0.1497
     35 C         141.8697  136.2399  156.2350 C.3     1  UNL1        0.0883
     36 C         141.7703  137.4297  155.3270 C.3     1  UNL1        0.0194
     37 C         141.0163  137.4106  156.6236 C.3     1  UNL1        0.0858
     38 C         145.0496  132.3580  157.8782 C.3     1  UNL1        0.0773
     39 C         143.8816  133.0927  157.2902 C.ar    1  UNL1        0.1809
     40 N         142.6515  132.4669  156.7025 N.ar    1  UNL1       -0.0606
     41 O         141.7481  133.5696  156.2357 O.2     1  UNL1       -0.3374
     42 C         142.4199  134.8771  156.5349 C.ar    1  UNL1        0.2363
     43 N         143.7384  134.5823  157.1866 N.ar    1  UNL1       -0.1949
@<TRIPOS>BOND
     1    38    39    1
     2    39    40   ar
     3    40    41   ar
     4    41    42   ar
     5    35    42    1
     6    35    36    1
     7    36    37    1
     8    37    31    1
     9    31    32    2
    10    31    33   am
    11    33    30    1
    12    30     1    1
    13     1     2   ar
    14     2     3   ar
    15     3     4   ar
    16     4    15    1
    17    15    16   ar
    18    16    17   ar
    19    17    18   ar
    20    18    19   ar
    21    19    21    1
    22    21    22    1
    23    22    23    1
    24    22    24    1
    25    22    25    1
    26    19    20   ar
    27     4     5   ar
    28     5     6   ar
    29     6     7    1
    30     7     8    1
    31     8     9   am
    32     9    10    2
    33     9    11   am
    34    11    26    1
    35    26    27    1
    36    26    28    1
    37    26    29    1
    38     8    12    1
    39    12    13    1
    40    42    43   ar
    41    43    39   ar
    42    37    35    1
    43     6     1   ar
    44    20    15   ar
    45    13     5    1
    46    33    34    1
    47    11    14    1
@<TRIPOS>MOLECULE
*****
 43 47 0 0 0
SMALL
GASTEIGER

@<TRIPOS>ATOM
      1 C         143.3507  140.0547  160.9187 C.ar    1  UNL1       -0.0052
      2 C         143.9187  139.1768  161.9941 C.ar    1  UNL1       -0.0029
      3 C         143.6804  139.5091  163.4373 C.ar    1  UNL1       -0.0006
      4 C         142.8741  140.7192  163.8051 C.ar    1  UNL1       -0.0041
      5 C         142.3060  141.5972  162.7296 C.ar    1  UNL1       -0.0231
      6 C         142.5443  141.2650  161.2864 C.ar    1  UNL1       -0.0085
      7 C         141.9763  142.1429  160.2110 C.3     1  UNL1        0.1211
      8 N         141.1700  143.3530  160.5787 N.am    1  UNL1       -0.2598
      9 C         140.6020  144.2310  159.5033 C.2     1  UNL1        0.3041
     10 O         139.7957  145.4412  159.8710 O.2     1  UNL1       -0.2526
     11 N         140.8403  143.8988  158.0601 N.am    1  UNL1       -0.2919
     12 C         140.9317  143.6853  162.0219 C.3     1  UNL1        0.0999
     13 C         141.4997  142.8074  163.0974 C.3     1  UNL1        0.0476
     14 H         141.3695  143.1045  157.8187 H       1  UNL1        0.1508
     15 C         142.6358  141.0515  165.2482 C.ar    1  UNL1        0.0027
     16 C         143.4735  142.0952  165.9258 C.ar    1  UNL1        0.0002
     17 C         143.2352  142.4275  167.3690 C.ar    1  UNL1        0.0031
     18 C         142.1592  141.7160  168.1346 C.ar    1  UNL1        0.0372
     19 C         141.3216  140.6724  167.4571 C.ar    1  UNL1        0.1468
     20 C         141.5599  140.3401  166.0139 C.ar    1  UNL1        0.0372
     21 O         140.2456  139.9609  168.2227 O.3     1  UNL1       -0.4045
     22 C         140.2012  140.0570  169.7190 C.3     1  UNL1        0.5753
     23 F         140.1568  140.1531  171.2153 F       1  UNL1       -0.1328
     24 F         139.0426  141.0049  169.6238 F       1  UNL1       -0.1328
     25 F         141.3598  139.1091  169.8142 F       1  UNL1       -0.1328
     26 C         140.2723  144.7767  156.9846 C.3     1  UNL1        0.0583
     27 C         139.1009  143.8499  156.8468 C.3     1  UNL1        0.0197
     28 C         141.4436  145.7034  157.1225 C.3     1  UNL1        0.0197
     29 C         139.7043  145.6546  155.9092 C.3     1  UNL1        0.0197
     30 C         143.5890  139.7224  159.4755 C.3     1  UNL1        0.1161
     31 C         143.0928  138.2114  157.4211 C.2     1  UNL1        0.2227
     32 O         143.6613  139.2604  156.5121 O.2     1  UNL1       -0.2751
     33 N         143.0566  138.4424  158.9027 N.am    1  UNL1       -0.3004
     34 H         142.6834  137.7539  159.4993 H       1  UNL1        0.1497
     35 C         142.6924  135.4539  156.6255 C.3     1  UNL1        0.0883
     36 C         141.5061  136.1916  156.0793 C.3     1  UNL1        0.0194
     37 C         142.5603  136.9313  156.8484 C.3     1  UNL1        0.0858
     38 C         144.9095  130.7500  155.7096 C.3     1  UNL1        0.0773
     39 C         144.4727  132.0128  156.3912 C.ar    1  UNL1        0.1809
     40 N         144.7773  132.4008  157.8077 N.ar    1  UNL1       -0.0606
     41 O         144.1475  133.7371  158.0680 O.2     1  UNL1       -0.3374
     42 C         143.4536  134.1749  156.8122 C.ar    1  UNL1        0.2363
     43 N         143.6547  133.1092  155.7759 N.ar    1  UNL1       -0.1949
@<TRIPOS>BOND
     1    38    39    1
     2    39    40   ar
     3    40    41   ar
     4    41    42   ar
     5    35    42    1
     6    35    36    1
     7    36    37    1
     8    37    31    1
     9    31    32    2
    10    31    33   am
    11    33    30    1
    12    30     1    1
    13     1     2   ar
    14     2     3   ar
    15     3     4   ar
    16     4    15    1
    17    15    16   ar
    18    16    17   ar
    19    17    18   ar
    20    18    19   ar
    21    19    21    1
    22    21    22    1
    23    22    23    1
    24    22    24    1
    25    22    25    1
    26    19    20   ar
    27     4     5   ar
    28     5     6   ar
    29     6     7    1
    30     7     8    1
    31     8     9   am
    32     9    10    2
    33     9    11   am
    34    11    26    1
    35    26    27    1
    36    26    28    1
    37    26    29    1
    38     8    12    1
    39    12    13    1
    40    42    43   ar
    41    43    39   ar
    42    37    35    1
    43     6     1   ar
    44    20    15   ar
    45    13     5    1
    46    33    34    1
    47    11    14    1
@<TRIPOS>MOLECULE
*****
 43 47 0 0 0
SMALL
GASTEIGER

@<TRIPOS>ATOM
      1 C         140.3564  144.5136  161.9983 C.ar    1  UNL1       -0.0052
      2 C         139.4492  144.8765  163.1364 C.ar    1  UNL1       -0.0029
      3 C         139.1784  143.8820  164.2261 C.ar    1  UNL1       -0.0006
      4 C         139.8148  142.5246  164.1778 C.ar    1  UNL1       -0.0041
      5 C         140.7220  142.1616  163.0397 C.ar    1  UNL1       -0.0231
      6 C         140.9928  143.1561  161.9499 C.ar    1  UNL1       -0.0085
      7 C         141.9000  142.7932  160.8119 C.3     1  UNL1        0.1211
      8 N         142.5364  141.4358  160.7636 N.am    1  UNL1       -0.2598
      9 C         143.4437  141.0729  159.6254 C.2     1  UNL1        0.3041
     10 O         144.0801  139.7155  159.5771 O.2     1  UNL1       -0.2526
     11 N         143.7145  142.0674  158.5357 N.am    1  UNL1       -0.2919
     12 C         142.2656  140.4413  161.8533 C.3     1  UNL1        0.0999
     13 C         141.3584  140.8042  162.9914 C.3     1  UNL1        0.0476
     14 H         143.2968  142.9583  158.5674 H       1  UNL1        0.1508
     15 C         139.5439  141.5301  165.2676 C.ar    1  UNL1        0.0027
     16 C         138.5541  140.4250  165.0455 C.ar    1  UNL1        0.0002
     17 C         138.2833  139.4305  166.1353 C.ar    1  UNL1        0.0031
     18 C         139.0023  139.5410  167.4471 C.ar    1  UNL1        0.0372
     19 C         139.9921  140.6460  167.6691 C.ar    1  UNL1        0.1468
     20 C         140.2629  141.6405  166.5794 C.ar    1  UNL1        0.0372
     21 O         140.7112  140.7564  168.9810 O.3     1  UNL1       -0.4045
     22 C         141.5401  139.6105  169.4807 C.3     1  UNL1        0.5753
     23 F         142.3690  138.4646  169.9805 F       1  UNL1       -0.1328
     24 F         140.5918  139.4249  170.6280 F       1  UNL1       -0.1328
     25 F         142.4883  139.7961  168.3334 F       1  UNL1       -0.1328
     26 C         144.6217  141.7045  157.3976 C.3     1  UNL1        0.0583
     27 C         143.5038  140.9430  156.7493 C.3     1  UNL1        0.0197
     28 C         145.7396  142.4660  158.0459 C.3     1  UNL1        0.0197
     29 C         145.5290  141.3416  156.2595 C.3     1  UNL1        0.0197
     30 C         140.6272  145.5081  160.9085 C.3     1  UNL1        0.1161
     31 C         140.6932  145.5548  158.3117 C.2     1  UNL1        0.2227
     32 O         142.1634  145.8489  158.3543 O.2     1  UNL1       -0.2751
     33 N         139.9251  145.3844  159.5888 N.am    1  UNL1       -0.3004
     34 H         138.9601  145.1914  159.5608 H       1  UNL1        0.1497
     35 C         139.1354  144.6435  156.0446 C.3     1  UNL1        0.0883
     36 C         139.6304  146.0043  155.6536 C.3     1  UNL1        0.0194
     37 C         139.9910  145.4311  156.9920 C.3     1  UNL1        0.0858
     38 C         135.2069  141.1338  155.6842 C.3     1  UNL1        0.0773
     39 C         136.5498  141.7898  155.5577 C.ar    1  UNL1        0.1809
     40 N         137.7615  141.1984  154.9002 N.ar    1  UNL1       -0.0606
     41 O         138.8776  142.1954  155.0026 O.2     1  UNL1       -0.3374
     42 C         138.3556  143.4030  155.7233 C.ar    1  UNL1        0.2363
     43 N         136.9171  143.1523  156.0664 N.ar    1  UNL1       -0.1949
@<TRIPOS>BOND
     1    38    39    1
     2    39    40   ar
     3    40    41   ar
     4    41    42   ar
     5    35    42    1
     6    35    36    1
     7    36    37    1
     8    37    31    1
     9    31    32    2
    10    31    33   am
    11    33    30    1
    12    30     1    1
    13     1     2   ar
    14     2     3   ar
    15     3     4   ar
    16     4    15    1
    17    15    16   ar
    18    16    17   ar
    19    17    18   ar
    20    18    19   ar
    21    19    21    1
    22    21    22    1
    23    22    23    1
    24    22    24    1
    25    22    25    1
    26    19    20   ar
    27     4     5   ar
    28     5     6   ar
    29     6     7    1
    30     7     8    1
    31     8     9   am
    32     9    10    2
    33     9    11   am
    34    11    26    1
    35    26    27    1
    36    26    28    1
    37    26    29    1
    38     8    12    1
    39    12    13    1
    40    42    43   ar
    41    43    39   ar
    42    37    35    1
    43     6     1   ar
    44    20    15   ar
    45    13     5    1
    46    33    34    1
    47    11    14    1
@<TRIPOS>MOLECULE
*****
 43 47 0 0 0
SMALL
GASTEIGER

@<TRIPOS>ATOM
      1 C         142.5683  139.2868  162.0085 C.ar    1  UNL1       -0.0052
      2 C         142.8544  138.2593  163.0631 C.ar    1  UNL1       -0.0029
      3 C         142.2394  138.3909  164.4249 C.ar    1  UNL1       -0.0006
      4 C         141.3383  139.5500  164.7320 C.ar    1  UNL1       -0.0041
      5 C         141.0520  140.5776  163.6773 C.ar    1  UNL1       -0.0231
      6 C         141.6670  140.4460  162.3156 C.ar    1  UNL1       -0.0085
      7 C         141.3808  141.4734  161.2609 C.3     1  UNL1        0.1211
      8 N         140.4796  142.6325  161.5680 N.am    1  UNL1       -0.2598
      9 C         140.1934  143.6600  160.5133 C.2     1  UNL1        0.3041
     10 O         139.2922  144.8191  160.8204 O.2     1  UNL1       -0.2526
     11 N         140.8084  143.5284  159.1515 N.am    1  UNL1       -0.2919
     12 C         139.8646  142.7641  162.9298 C.3     1  UNL1        0.0999
     13 C         140.1508  141.7366  163.9845 C.3     1  UNL1        0.0476
     14 H         141.3999  142.7677  158.9500 H       1  UNL1        0.1508
     15 C         140.7233  139.6816  166.0938 C.ar    1  UNL1        0.0027
     16 C         139.2560  139.4321  166.2814 C.ar    1  UNL1        0.0002
     17 C         138.6410  139.5637  167.6432 C.ar    1  UNL1        0.0031
     18 C         139.4933  139.9448  168.8174 C.ar    1  UNL1        0.0372
     19 C         140.9604  140.1943  168.6297 C.ar    1  UNL1        0.1468
     20 C         141.5754  140.0627  167.2679 C.ar    1  UNL1        0.0372
     21 O         141.8126  140.5754  169.8039 O.3     1  UNL1       -0.4045
     22 C         142.5642  141.8735  169.7952 C.3     1  UNL1        0.5753
     23 F         143.3158  143.1716  169.7864 F       1  UNL1       -0.1328
     24 F         141.3108  142.5966  169.3998 F       1  UNL1       -0.1328
     25 F         143.8176  141.1504  170.1905 F       1  UNL1       -0.1328
     26 C         140.5222  144.5559  158.0969 C.3     1  UNL1        0.0583
     27 C         141.6705  145.3841  158.5921 C.3     1  UNL1        0.0197
     28 C         139.3739  143.7277  157.6016 C.3     1  UNL1        0.0197
     29 C         140.2360  145.5834  157.0421 C.3     1  UNL1        0.0197
     30 C         143.1833  139.1552  160.6467 C.3     1  UNL1        0.1161
     31 C         142.9325  138.2486  158.2249 C.2     1  UNL1        0.2227
     32 O         143.6758  139.4417  157.7013 O.2     1  UNL1       -0.2751
     33 N         142.6863  138.1054  159.6976 N.am    1  UNL1       -0.3004
     34 H         142.1984  137.3223  160.0412 H       1  UNL1        0.1497
     35 C         141.4035  136.7111  156.3026 C.3     1  UNL1        0.0883
     36 C         142.6067  135.8680  156.6050 C.3     1  UNL1        0.0194
     37 C         142.4355  137.1988  157.2757 C.3     1  UNL1        0.0858
     38 C         137.8371  137.0783  152.4261 C.3     1  UNL1        0.0773
     39 C         138.4736  137.0850  153.7843 C.ar    1  UNL1        0.1809
     40 N         137.7801  137.3790  155.0815 N.ar    1  UNL1       -0.0606
     41 O         138.7932  137.2747  156.1828 O.2     1  UNL1       -0.3374
     42 C         140.1129  136.9163  155.5662 C.ar    1  UNL1        0.2363
     43 N         139.9153  136.7991  154.0839 N.ar    1  UNL1       -0.1949
@<TRIPOS>BOND
     1    38    39    1
     2    39    40   ar
     3    40    41   ar
     4    41    42   ar
     5    35    42    1
     6    35    36    1
     7    36    37    1
     8    37    31    1
     9    31    32    2
    10    31    33   am
    11    33    30    1
    12    30     1    1
    13     1     2   ar
    14     2     3   ar
    15     3     4   ar
    16     4    15    1
    17    15    16   ar
    18    16    17   ar
    19    17    18   ar
    20    18    19   ar
    21    19    21    1
    22    21    22    1
    23    22    23    1
    24    22    24    1
    25    22    25    1
    26    19    20   ar
    27     4     5   ar
    28     5     6   ar
    29     6     7    1
    30     7     8    1
    31     8     9   am
    32     9    10    2
    33     9    11   am
    34    11    26    1
    35    26    27    1
    36    26    28    1
    37    26    29    1
    38     8    12    1
    39    12    13    1
    40    42    43   ar
    41    43    39   ar
    42    37    35    1
    43     6     1   ar
    44    20    15   ar
    45    13     5    1
    46    33    34    1
    47    11    14    1
@<TRIPOS>MOLECULE
*****
 43 47 0 0 0
SMALL
GASTEIGER

@<TRIPOS>ATOM
      1 C         139.3531  140.5352  160.1708 C.ar    1  UNL1       -0.0052
      2 C         138.5682  139.8942  159.0649 C.ar    1  UNL1       -0.0029
      3 C         139.2798  139.3157  157.8779 C.ar    1  UNL1       -0.0006
      4 C         140.7763  139.3783  157.7968 C.ar    1  UNL1       -0.0041
      5 C         141.5612  140.0194  158.9027 C.ar    1  UNL1       -0.0231
      6 C         140.8496  140.5978  160.0897 C.ar    1  UNL1       -0.0085
      7 C         141.6344  141.2389  161.1956 C.3     1  UNL1        0.1211
      8 N         143.1309  141.3015  161.1145 N.am    1  UNL1       -0.2598
      9 C         143.9158  141.9426  162.2204 C.2     1  UNL1        0.3041
     10 O         145.4123  142.0052  162.1392 O.2     1  UNL1       -0.2526
     11 N         143.2042  142.5211  163.4074 N.am    1  UNL1       -0.2919
     12 C         143.8425  140.7230  159.9275 C.3     1  UNL1        0.0999
     13 C         143.0577  140.0820  158.8216 C.3     1  UNL1        0.0476
     14 H         142.2220  142.4800  163.4606 H       1  UNL1        0.1508
     15 C         141.4879  138.7998  156.6098 C.ar    1  UNL1        0.0027
     16 C         141.7421  139.6497  155.4002 C.ar    1  UNL1        0.0002
     17 C         142.4537  139.0713  154.2132 C.ar    1  UNL1        0.0031
     18 C         142.9112  137.6429  154.2358 C.ar    1  UNL1        0.0372
     19 C         142.6570  136.7930  155.4454 C.ar    1  UNL1        0.1468
     20 C         141.9454  137.3715  156.6324 C.ar    1  UNL1        0.0372
     21 O         143.1145  135.3646  155.4680 O.3     1  UNL1       -0.4045
     22 C         142.1097  134.2570  155.5845 C.3     1  UNL1        0.5753
     23 F         141.1048  133.1494  155.7010 F       1  UNL1       -0.1328
     24 F         142.5832  133.9741  156.9794 F       1  UNL1       -0.1328
     25 F         141.6361  134.5399  154.1896 F       1  UNL1       -0.1328
     26 C         143.9891  143.1621  164.5132 C.3     1  UNL1        0.0583
     27 C         144.0859  141.8384  165.2119 C.3     1  UNL1        0.0197
     28 C         143.8922  144.4859  163.8146 C.3     1  UNL1        0.0197
     29 C         144.7739  143.8033  165.6192 C.3     1  UNL1        0.0197
     30 C         138.6414  141.1137  161.3578 C.3     1  UNL1        0.1161
     31 C         138.4023  139.1678  163.0625 C.2     1  UNL1        0.2227
     32 O         137.6800  138.3528  162.0310 O.2     1  UNL1       -0.2751
     33 N         138.8830  140.5482  162.7259 N.am    1  UNL1       -0.3004
     34 H         139.3570  141.0831  163.4030 H       1  UNL1        0.1497
     35 C         138.9707  138.8043  165.8807 C.3     1  UNL1        0.0883
     36 C         138.7354  137.4210  165.3506 C.3     1  UNL1        0.0194
     37 C         138.6438  138.6023  164.4308 C.3     1  UNL1        0.0858
     38 C         140.8782  142.8465  168.6919 C.3     1  UNL1        0.0773
     39 C         140.1721  141.5776  168.3161 C.ar    1  UNL1        0.1809
     40 N         139.4175  140.6787  169.2501 N.ar    1  UNL1       -0.0606
     41 O         138.8755  139.5303  168.4515 O.2     1  UNL1       -0.3374
     42 C         139.2953  139.7196  167.0239 C.ar    1  UNL1        0.2363
     43 N         140.0966  140.9849  166.9402 N.ar    1  UNL1       -0.1949
@<TRIPOS>BOND
     1    38    39    1
     2    39    40   ar
     3    40    41   ar
     4    41    42   ar
     5    35    42    1
     6    35    36    1
     7    36    37    1
     8    37    31    1
     9    31    32    2
    10    31    33   am
    11    33    30    1
    12    30     1    1
    13     1     2   ar
    14     2     3   ar
    15     3     4   ar
    16     4    15    1
    17    15    16   ar
    18    16    17   ar
    19    17    18   ar
    20    18    19   ar
    21    19    21    1
    22    21    22    1
    23    22    23    1
    24    22    24    1
    25    22    25    1
    26    19    20   ar
    27     4     5   ar
    28     5     6   ar
    29     6     7    1
    30     7     8    1
    31     8     9   am
    32     9    10    2
    33     9    11   am
    34    11    26    1
    35    26    27    1
    36    26    28    1
    37    26    29    1
    38     8    12    1
    39    12    13    1
    40    42    43   ar
    41    43    39   ar
    42    37    35    1
    43     6     1   ar
    44    20    15   ar
    45    13     5    1
    46    33    34    1
    47    11    14    1
