@<TRIPOS>MOLECULE
*****
 32 36 0 0 0
SMALL
GASTEIGER

@<TRIPOS>ATOM
      1 C         143.3524  134.4374  156.3420 C.ar    1  UNL1        0.1663
      2 N         142.6696  135.3721  157.2960 N.ar    1  UNL1       -0.2222
      3 C         143.0680  136.7731  156.9372 C.ar    1  UNL1        0.1305
      4 C         142.7048  138.1026  157.5292 C.ar    1  UNL1        0.0765
      5 C         143.2706  139.3632  156.9454 C.ar    1  UNL1        0.0664
      6 BR        142.9074  140.6928  157.5375 Br      1  UNL1       -0.0461
      7 C         144.1995  139.2943  155.7698 C.ar    1  UNL1        0.0816
      8 N         144.5627  137.9648  155.1778 N.ar    1  UNL1       -0.3357
      9 C         143.9969  136.7042  155.7615 C.ar    1  UNL1        0.1613
     10 N         144.1728  135.2607  155.3936 N.ar    1  UNL1       -0.2081
     11 H         145.1724  137.9196  154.4061 H       1  UNL1        0.1675
     12 C         145.2663  132.3585  157.9743 C.3     1  UNL1        0.0541
     13 C         144.1152  131.9865  157.0875 C.ar    1  UNL1        0.0830
     14 N         143.6417  130.5935  156.7953 N.ar    1  UNL1       -0.1738
     15 N         142.4693  130.6881  155.8643 N.ar    1  UNL1       -0.2531
     16 C         141.6857  129.5340  155.3133 C.3     1  UNL1        0.1533
     17 C         142.2183  132.1396  155.5812 C.ar    1  UNL1        0.0601
     18 C         141.1394  132.6918  154.6974 C.3     1  UNL1        0.0518
     19 C         143.2355  132.9420  156.3372 C.ar    1  UNL1        0.0642
     20 N         141.7758  138.1715  158.7049 N.pl3   1  UNL1       -0.3030
     21 C         142.3195  138.0563  160.0981 C.3     1  UNL1        0.1082
     22 C         141.3904  138.1252  161.2738 C.3     1  UNL1        0.0941
     23 N         139.9178  138.3095  161.0562 N.3     1  UNL1       -0.2659
     24 C         139.3741  138.4248  159.6630 C.3     1  UNL1        0.0941
     25 C         140.3031  138.3558  158.4873 C.3     1  UNL1        0.1082
     26 C         138.9887  138.3785  162.2318 C.3     1  UNL1        0.1008
     27 C         138.5541  139.7107  162.7671 C.ar    1  UNL1        0.0130
     28 C         138.9173  140.1115  164.1662 C.ar    1  UNL1        0.0002
     29 C         138.4827  141.4436  164.7016 C.ar    1  UNL1        0.0204
     30 C         137.6849  142.3749  163.8377 C.ar    1  UNL1        0.0989
     31 N         137.3217  141.9740  162.4387 N.ar    1  UNL1       -0.2426
     32 C         137.7563  140.6420  161.9033 C.ar    1  UNL1        0.0959
@<TRIPOS>BOND
     1    12    13    1
     2    13    14   ar
     3    14    15   ar
     4    15    16    1
     5    15    17   ar
     6    17    18    1
     7    17    19   ar
     8    19     1    1
     9     1     2   ar
    10     2     3   ar
    11     3     4   ar
    12     4    20    1
    13    20    21    1
    14    21    22    1
    15    22    23    1
    16    23    26    1
    17    26    27    1
    18    27    28   ar
    19    28    29   ar
    20    29    30   ar
    21    30    31   ar
    22    31    32   ar
    23    23    24    1
    24    24    25    1
    25     4     5   ar
    26     5     6    1
    27     5     7   ar
    28     7     8   ar
    29     8     9   ar
    30     9    10   ar
    31    19    13   ar
    32    10     1   ar
    33     9     3    1
    34    25    20    1
    35    32    27   ar
    36     8    11    1
@<TRIPOS>MOLECULE
*****
 32 36 0 0 0
SMALL
GASTEIGER

@<TRIPOS>ATOM
      1 C         143.3729  134.4445  156.3629 C.ar    1  UNL1        0.1663
      2 N         142.6856  135.3899  157.3029 N.ar    1  UNL1       -0.2222
      3 C         143.0546  136.7885  156.9056 C.ar    1  UNL1        0.1305
      4 C         142.6754  138.1254  157.4703 C.ar    1  UNL1        0.0765
      5 C         143.2115  139.3812  156.8493 C.ar    1  UNL1        0.0664
      6 BR        142.8323  140.7182  157.4140 Br      1  UNL1       -0.0461
      7 C         144.1268  139.3001  155.6638 C.ar    1  UNL1        0.0816
      8 N         144.5061  137.9632  155.0992 N.ar    1  UNL1       -0.3357
      9 C         143.9700  136.7074  155.7201 C.ar    1  UNL1        0.1613
     10 N         144.1667  135.2587  155.3846 N.ar    1  UNL1       -0.2081
     11 H         145.1069  137.9100  154.3211 H       1  UNL1        0.1675
     12 C         141.1655  132.6219  154.7960 C.3     1  UNL1        0.0541
     13 C         142.2677  132.1099  155.6751 C.ar    1  UNL1        0.0830
     14 N         142.5488  130.6701  155.9883 N.ar    1  UNL1       -0.1738
     15 N         143.7372  130.6179  156.9021 N.ar    1  UNL1       -0.2531
     16 C         144.3624  129.3764  157.4655 C.3     1  UNL1        0.1533
     17 C         144.1906  132.0256  157.1537 C.ar    1  UNL1        0.0601
     18 C         145.3488  132.4386  158.0127 C.3     1  UNL1        0.0518
     19 C         143.2824  132.9476  156.3953 C.ar    1  UNL1        0.0642
     20 N         141.7600  138.2066  158.6559 N.pl3   1  UNL1       -0.3030
     21 C         142.3222  138.1273  160.0443 C.3     1  UNL1        0.1082
     22 C         141.4068  138.2085  161.2298 C.3     1  UNL1        0.0941
     23 N         139.9292  138.3689  161.0269 N.3     1  UNL1       -0.2659
     24 C         139.3671  138.4482  159.6385 C.3     1  UNL1        0.0941
     25 C         140.2825  138.3670  158.4530 C.3     1  UNL1        0.1082
     26 C         139.0138  138.4501  162.2124 C.3     1  UNL1        0.1008
     27 C         138.5880  139.7878  162.7410 C.ar    1  UNL1        0.0130
     28 C         138.9649  140.1986  164.1335 C.ar    1  UNL1        0.0002
     29 C         138.5392  141.5362  164.6621 C.ar    1  UNL1        0.0204
     30 C         137.7365  142.4631  163.7981 C.ar    1  UNL1        0.0989
     31 N         137.3596  142.0524  162.4056 N.ar    1  UNL1       -0.2426
     32 C         137.7853  140.7148  161.8769 C.ar    1  UNL1        0.0959
@<TRIPOS>BOND
     1    12    13    1
     2    13    14   ar
     3    14    15   ar
     4    15    16    1
     5    15    17   ar
     6    17    18    1
     7    17    19   ar
     8    19     1    1
     9     1     2   ar
    10     2     3   ar
    11     3     4   ar
    12     4    20    1
    13    20    21    1
    14    21    22    1
    15    22    23    1
    16    23    26    1
    17    26    27    1
    18    27    28   ar
    19    28    29   ar
    20    29    30   ar
    21    30    31   ar
    22    31    32   ar
    23    23    24    1
    24    24    25    1
    25     4     5   ar
    26     5     6    1
    27     5     7   ar
    28     7     8   ar
    29     8     9   ar
    30     9    10   ar
    31    19    13   ar
    32    10     1   ar
    33     9     3    1
    34    25    20    1
    35    32    27   ar
    36     8    11    1
@<TRIPOS>MOLECULE
*****
 32 36 0 0 0
SMALL
GASTEIGER

@<TRIPOS>ATOM
      1 C         143.0955  136.2164  156.1297 C.ar    1  UNL1        0.1663
      2 N         142.3696  137.1953  157.0042 N.ar    1  UNL1       -0.2222
      3 C         143.1461  138.4786  157.0073 C.ar    1  UNL1        0.1305
      4 C         142.9110  139.7923  157.6920 C.ar    1  UNL1        0.0765
      5 C         143.8818  140.9203  157.5040 C.ar    1  UNL1        0.0664
      6 BR        143.6467  142.2341  158.1887 Br      1  UNL1       -0.0461
      7 C         145.0876  140.7345  156.6315 C.ar    1  UNL1        0.0816
      8 N         145.3227  139.4208  155.9468 N.ar    1  UNL1       -0.3357
      9 C         144.3520  138.2928  156.1347 C.ar    1  UNL1        0.1613
     10 N         144.3207  136.8947  155.5923 N.ar    1  UNL1       -0.2081
     11 H         146.1142  139.2989  155.3741 H       1  UNL1        0.1675
     12 C         140.9715  135.2821  153.8351 C.3     1  UNL1        0.0541
     13 C         141.6945  134.3772  154.7882 C.ar    1  UNL1        0.0830
     14 N         141.5681  132.8840  154.8538 N.ar    1  UNL1       -0.1738
     15 N         142.4663  132.3905  155.9492 N.ar    1  UNL1       -0.2531
     16 C         142.6507  130.9600  156.3609 C.3     1  UNL1        0.1533
     17 C         143.1478  133.5788  156.5605 C.ar    1  UNL1        0.0601
     18 C         144.1333  133.5451  157.6908 C.3     1  UNL1        0.0518
     19 C         142.6708  134.8066  155.8429 C.ar    1  UNL1        0.0642
     20 N         141.7051  139.9781  158.5646 N.pl3   1  UNL1       -0.3030
     21 C         140.4225  140.4835  157.9737 C.3     1  UNL1        0.1082
     22 C         139.2167  140.6694  158.8464 C.3     1  UNL1        0.0941
     23 N         139.2936  140.3498  160.3099 N.3     1  UNL1       -0.2659
     24 C         140.5763  139.8444  160.9008 C.3     1  UNL1        0.0941
     25 C         141.7821  139.6585  160.0281 C.3     1  UNL1        0.1082
     26 C         138.0878  140.5356  161.1826 C.3     1  UNL1        0.1008
     27 C         138.0022  141.7180  162.1017 C.ar    1  UNL1        0.0130
     28 C         137.7946  141.5110  163.5727 C.ar    1  UNL1        0.0002
     29 C         137.7089  142.6934  164.4918 C.ar    1  UNL1        0.0204
     30 C         137.8309  144.0827  163.9397 C.ar    1  UNL1        0.0989
     31 N         138.0385  144.2897  162.4687 N.ar    1  UNL1       -0.2426
     32 C         138.1242  143.1074  161.5496 C.ar    1  UNL1        0.0959
@<TRIPOS>BOND
     1    12    13    1
     2    13    14   ar
     3    14    15   ar
     4    15    16    1
     5    15    17   ar
     6    17    18    1
     7    17    19   ar
     8    19     1    1
     9     1     2   ar
    10     2     3   ar
    11     3     4   ar
    12     4    20    1
    13    20    21    1
    14    21    22    1
    15    22    23    1
    16    23    26    1
    17    26    27    1
    18    27    28   ar
    19    28    29   ar
    20    29    30   ar
    21    30    31   ar
    22    31    32   ar
    23    23    24    1
    24    24    25    1
    25     4     5   ar
    26     5     6    1
    27     5     7   ar
    28     7     8   ar
    29     8     9   ar
    30     9    10   ar
    31    19    13   ar
    32    10     1   ar
    33     9     3    1
    34    25    20    1
    35    32    27   ar
    36     8    11    1
@<TRIPOS>MOLECULE
*****
 32 36 0 0 0
SMALL
GASTEIGER

@<TRIPOS>ATOM
      1 C         143.4463  135.9366  155.8824 C.ar    1  UNL1        0.1663
      2 N         142.6132  136.7054  156.8648 N.ar    1  UNL1       -0.2222
      3 C         143.1612  138.0993  156.9463 C.ar    1  UNL1        0.1305
      4 C         142.7446  139.2961  157.7488 C.ar    1  UNL1        0.0765
      5 C         143.4997  140.5858  157.6192 C.ar    1  UNL1        0.0664
      6 BR        143.0831  141.7827  158.4218 Br      1  UNL1       -0.0461
      7 C         144.6713  140.6785  156.6873 C.ar    1  UNL1        0.0816
      8 N         145.0879  139.4817  155.8848 N.ar    1  UNL1       -0.3357
      9 C         144.3328  138.1921  156.0143 C.ar    1  UNL1        0.1613
     10 N         144.5090  136.8554  155.3568 N.ar    1  UNL1       -0.2081
     11 H         145.8569  139.5426  155.2731 H       1  UNL1        0.1675
     12 C         144.3882  133.3356  157.6136 C.3     1  UNL1        0.0541
     13 C         143.6839  133.3055  156.2896 C.ar    1  UNL1        0.0830
     14 N         143.2888  132.0745  155.5290 N.ar    1  UNL1       -0.1738
     15 N         142.6116  132.5093  154.2630 N.ar    1  UNL1       -0.2531
     16 C         142.0555  131.6035  153.2047 C.3     1  UNL1        0.1533
     17 C         142.5882  134.0090  154.2414 C.ar    1  UNL1        0.0601
     18 C         142.0045  134.8661  153.1575 C.3     1  UNL1        0.0518
     19 C         143.2509  134.5010  155.4939 C.ar    1  UNL1        0.0642
     20 N         141.5729  139.2035  158.6808 N.pl3   1  UNL1       -0.3030
     21 C         140.1953  139.5356  158.1891 C.3     1  UNL1        0.1082
     22 C         139.0237  139.4429  159.1212 C.3     1  UNL1        0.0941
     23 N         139.2297  139.0181  160.5449 N.3     1  UNL1       -0.2659
     24 C         140.6073  138.6859  161.0366 C.3     1  UNL1        0.0941
     25 C         141.7789  138.7786  160.1045 C.3     1  UNL1        0.1082
     26 C         138.0581  138.9253  161.4770 C.3     1  UNL1        0.1008
     27 C         138.2772  138.9403  162.9609 C.ar    1  UNL1        0.0130
     28 C         138.7207  137.6929  163.6661 C.ar    1  UNL1        0.0002
     29 C         138.9398  137.7077  165.1499 C.ar    1  UNL1        0.0204
     30 C         138.7154  138.9700  165.9285 C.ar    1  UNL1        0.0989
     31 N         138.2720  140.2174  165.2233 N.ar    1  UNL1       -0.2426
     32 C         138.0529  140.2026  163.7395 C.ar    1  UNL1        0.0959
@<TRIPOS>BOND
     1    12    13    1
     2    13    14   ar
     3    14    15   ar
     4    15    16    1
     5    15    17   ar
     6    17    18    1
     7    17    19   ar
     8    19     1    1
     9     1     2   ar
    10     2     3   ar
    11     3     4   ar
    12     4    20    1
    13    20    21    1
    14    21    22    1
    15    22    23    1
    16    23    26    1
    17    26    27    1
    18    27    28   ar
    19    28    29   ar
    20    29    30   ar
    21    30    31   ar
    22    31    32   ar
    23    23    24    1
    24    24    25    1
    25     4     5   ar
    26     5     6    1
    27     5     7   ar
    28     7     8   ar
    29     8     9   ar
    30     9    10   ar
    31    19    13   ar
    32    10     1   ar
    33     9     3    1
    34    25    20    1
    35    32    27   ar
    36     8    11    1
@<TRIPOS>MOLECULE
*****
 32 36 0 0 0
SMALL
GASTEIGER

@<TRIPOS>ATOM
      1 C         143.2678  136.6562  155.9053 C.ar    1  UNL1        0.1663
      2 N         142.6456  137.0798  157.2028 N.ar    1  UNL1       -0.2222
      3 C         143.1665  138.4448  157.5427 C.ar    1  UNL1        0.1305
      4 C         142.9031  139.3595  158.7020 C.ar    1  UNL1        0.0765
      5 C         143.5839  140.6942  158.7738 C.ar    1  UNL1        0.0664
      6 BR        143.3205  141.6090  159.9332 Br      1  UNL1       -0.0461
      7 C         144.5278  141.1142  157.6865 C.ar    1  UNL1        0.0816
      8 N         144.7912  140.1995  156.5272 N.ar    1  UNL1       -0.3357
      9 C         144.1105  138.8648  156.4553 C.ar    1  UNL1        0.1613
     10 N         144.1731  137.7594  155.4433 N.ar    1  UNL1       -0.2081
     11 H         145.4108  140.4752  155.8135 H       1  UNL1        0.1675
     12 C         141.8942  136.3043  152.9661 C.3     1  UNL1        0.0541
     13 C         142.3955  135.1958  153.8434 C.ar    1  UNL1        0.0830
     14 N         142.3534  133.7308  153.5238 N.ar    1  UNL1       -0.1738
     15 N         142.9588  132.9871  154.6773 N.ar    1  UNL1       -0.2531
     16 C         143.1196  131.4994  154.7802 C.3     1  UNL1        0.1533
     17 C         143.3750  133.9925  155.7098 C.ar    1  UNL1        0.0601
     18 C         144.0251  133.6866  157.0265 C.3     1  UNL1        0.0518
     19 C         143.0268  135.3575  155.1944 C.ar    1  UNL1        0.0642
     20 N         141.9591  138.9395  159.7895 N.pl3   1  UNL1       -0.3030
     21 C         142.4759  138.1966  160.9857 C.3     1  UNL1        0.1082
     22 C         141.5318  137.7767  162.0731 C.3     1  UNL1        0.0941
     23 N         140.0710  138.0997  161.9642 N.3     1  UNL1       -0.2659
     24 C         139.5543  138.8426  160.7679 C.3     1  UNL1        0.0941
     25 C         140.4984  139.2625  159.6806 C.3     1  UNL1        0.1082
     26 C         139.1270  137.6798  163.0516 C.3     1  UNL1        0.1008
     27 C         139.0573  138.4639  164.3285 C.ar    1  UNL1        0.0130
     28 C         138.4224  137.8598  165.5459 C.ar    1  UNL1        0.0002
     29 C         138.3527  138.6437  166.8228 C.ar    1  UNL1        0.0204
     30 C         138.9181  140.0319  166.8823 C.ar    1  UNL1        0.0989
     31 N         139.5530  140.6360  165.6650 N.ar    1  UNL1       -0.2426
     32 C         139.6227  139.8520  164.3881 C.ar    1  UNL1        0.0959
@<TRIPOS>BOND
     1    12    13    1
     2    13    14   ar
     3    14    15   ar
     4    15    16    1
     5    15    17   ar
     6    17    18    1
     7    17    19   ar
     8    19     1    1
     9     1     2   ar
    10     2     3   ar
    11     3     4   ar
    12     4    20    1
    13    20    21    1
    14    21    22    1
    15    22    23    1
    16    23    26    1
    17    26    27    1
    18    27    28   ar
    19    28    29   ar
    20    29    30   ar
    21    30    31   ar
    22    31    32   ar
    23    23    24    1
    24    24    25    1
    25     4     5   ar
    26     5     6    1
    27     5     7   ar
    28     7     8   ar
    29     8     9   ar
    30     9    10   ar
    31    19    13   ar
    32    10     1   ar
    33     9     3    1
    34    25    20    1
    35    32    27   ar
    36     8    11    1
@<TRIPOS>MOLECULE
*****
 32 36 0 0 0
SMALL
GASTEIGER

@<TRIPOS>ATOM
      1 C         140.1008  142.1106  165.7845 C.ar    1  UNL1        0.1663
      2 N         140.5885  141.6275  164.4508 N.ar    1  UNL1       -0.2222
      3 C         140.6777  142.8109  163.5335 C.ar    1  UNL1        0.1305
      4 C         141.0970  142.9394  162.0990 C.ar    1  UNL1        0.0765
      5 C         141.0836  144.2826  161.4313 C.ar    1  UNL1        0.0664
      6 BR        141.5029  144.4112  159.9967 Br      1  UNL1       -0.0461
      7 C         140.6510  145.4971  162.1979 C.ar    1  UNL1        0.0816
      8 N         140.2318  145.3685  163.6324 N.ar    1  UNL1       -0.3357
      9 C         140.2451  144.0254  164.3001 C.ar    1  UNL1        0.1613
     10 N         139.8886  143.5926  165.6914 N.ar    1  UNL1       -0.2081
     11 H         139.9479  146.1656  164.1356 H       1  UNL1        0.1675
     12 C         138.2258  139.4435  165.9259 C.3     1  UNL1        0.0541
     13 C         139.0045  140.0350  167.0632 C.ar    1  UNL1        0.0830
     14 N         139.0582  139.5044  168.4652 N.ar    1  UNL1       -0.1738
     15 N         139.9533  140.4024  169.2667 N.ar    1  UNL1       -0.2531
     16 C         140.2897  140.2429  170.7197 C.3     1  UNL1        0.1533
     17 C         140.4528  141.4881  168.3601 C.ar    1  UNL1        0.0601
     18 C         141.3765  142.6047  168.7473 C.3     1  UNL1        0.0518
     19 C         139.8664  141.2610  166.9982 C.ar    1  UNL1        0.0642
     20 N         141.5296  141.7249  161.3322 N.pl3   1  UNL1       -0.3030
     21 C         142.9775  141.3345  161.3004 C.3     1  UNL1        0.1082
     22 C         143.4100  140.1200  160.5336 C.3     1  UNL1        0.0941
     23 N         142.3946  139.2960  159.7987 N.3     1  UNL1       -0.2659
     24 C         140.9467  139.6865  159.8305 C.3     1  UNL1        0.0941
     25 C         140.5142  140.9010  160.5973 C.3     1  UNL1        0.1082
     26 C         142.8271  138.0816  159.0319 C.3     1  UNL1        0.1008
     27 C         142.7166  138.0603  157.5360 C.ar    1  UNL1        0.0130
     28 C         142.2877  136.8063  156.8335 C.ar    1  UNL1        0.0002
     29 C         142.1772  136.7850  155.3377 C.ar    1  UNL1        0.0204
     30 C         142.4955  138.0177  154.5446 C.ar    1  UNL1        0.0989
     31 N         142.9244  139.2716  155.2471 N.ar    1  UNL1       -0.2426
     32 C         143.0349  139.2930  156.7429 C.ar    1  UNL1        0.0959
@<TRIPOS>BOND
     1    12    13    1
     2    13    14   ar
     3    14    15   ar
     4    15    16    1
     5    15    17   ar
     6    17    18    1
     7    17    19   ar
     8    19     1    1
     9     1     2   ar
    10     2     3   ar
    11     3     4   ar
    12     4    20    1
    13    20    21    1
    14    21    22    1
    15    22    23    1
    16    23    26    1
    17    26    27    1
    18    27    28   ar
    19    28    29   ar
    20    29    30   ar
    21    30    31   ar
    22    31    32   ar
    23    23    24    1
    24    24    25    1
    25     4     5   ar
    26     5     6    1
    27     5     7   ar
    28     7     8   ar
    29     8     9   ar
    30     9    10   ar
    31    19    13   ar
    32    10     1   ar
    33     9     3    1
    34    25    20    1
    35    32    27   ar
    36     8    11    1
@<TRIPOS>MOLECULE
*****
 32 36 0 0 0
SMALL
GASTEIGER

@<TRIPOS>ATOM
      1 C         140.2495  140.4572  167.1543 C.ar    1  UNL1        0.1663
      2 N         140.2728  141.0747  165.7875 N.ar    1  UNL1       -0.2222
      3 C         139.7781  140.0517  164.8083 C.ar    1  UNL1        0.1305
      4 C         139.5847  140.0967  163.3215 C.ar    1  UNL1        0.0765
      5 C         139.0623  138.8920  162.5964 C.ar    1  UNL1        0.0664
      6 BR        138.8689  138.9370  161.1095 Br      1  UNL1       -0.0461
      7 C         138.7334  137.6424  163.3580 C.ar    1  UNL1        0.0816
      8 N         138.9267  137.5974  164.8448 N.ar    1  UNL1       -0.3357
      9 C         139.4491  138.8021  165.5699 C.ar    1  UNL1        0.1613
     10 N         139.7405  139.0527  167.0198 N.ar    1  UNL1       -0.2081
     11 H         138.7108  136.7772  165.3446 H       1  UNL1        0.1675
     12 C         138.5959  140.4098  169.9672 C.3     1  UNL1        0.0541
     13 C         139.9026  141.1049  169.7243 C.ar    1  UNL1        0.0830
     14 N         140.6787  141.9004  170.7318 N.ar    1  UNL1       -0.1738
     15 N         141.9186  142.4138  170.0615 N.ar    1  UNL1       -0.2531
     16 C         142.9815  143.2572  170.7006 C.3     1  UNL1        0.1533
     17 C         141.9087  141.9357  168.6397 C.ar    1  UNL1        0.0601
     18 C         142.9601  142.2171  167.6075 C.3     1  UNL1        0.0518
     19 C         140.6628  141.1268  168.4314 C.ar    1  UNL1        0.0642
     20 N         139.9137  141.3464  162.5598 N.pl3   1  UNL1       -0.3030
     21 C         141.2630  141.5037  161.9236 C.3     1  UNL1        0.1082
     22 C         141.5918  142.7534  161.1619 C.3     1  UNL1        0.0941
     23 N         140.5715  143.8457  161.0364 N.3     1  UNL1       -0.2659
     24 C         139.2222  143.6884  161.6726 C.3     1  UNL1        0.0941
     25 C         138.8934  142.4387  162.4343 C.3     1  UNL1        0.1082
     26 C         140.9004  145.0953  160.2747 C.3     1  UNL1        0.1008
     27 C         140.8552  145.0936  158.7753 C.ar    1  UNL1        0.0130
     28 C         141.8637  145.8822  157.9937 C.ar    1  UNL1        0.0002
     29 C         141.8186  145.8805  156.4944 C.ar    1  UNL1        0.0204
     30 C         140.7649  145.0901  155.7767 C.ar    1  UNL1        0.0989
     31 N         139.7564  144.3015  156.5584 N.ar    1  UNL1       -0.2426
     32 C         139.8015  144.3032  158.0577 C.ar    1  UNL1        0.0959
@<TRIPOS>BOND
     1    12    13    1
     2    13    14   ar
     3    14    15   ar
     4    15    16    1
     5    15    17   ar
     6    17    18    1
     7    17    19   ar
     8    19     1    1
     9     1     2   ar
    10     2     3   ar
    11     3     4   ar
    12     4    20    1
    13    20    21    1
    14    21    22    1
    15    22    23    1
    16    23    26    1
    17    26    27    1
    18    27    28   ar
    19    28    29   ar
    20    29    30   ar
    21    30    31   ar
    22    31    32   ar
    23    23    24    1
    24    24    25    1
    25     4     5   ar
    26     5     6    1
    27     5     7   ar
    28     7     8   ar
    29     8     9   ar
    30     9    10   ar
    31    19    13   ar
    32    10     1   ar
    33     9     3    1
    34    25    20    1
    35    32    27   ar
    36     8    11    1
@<TRIPOS>MOLECULE
*****
 32 36 0 0 0
SMALL
GASTEIGER

@<TRIPOS>ATOM
      1 C         138.9158  147.4396  155.7945 C.ar    1  UNL1        0.1663
      2 N         139.6341  146.5648  156.7788 N.ar    1  UNL1       -0.2222
      3 C         139.2735  145.1395  156.4815 C.ar    1  UNL1        0.1305
      4 C         139.6806  143.8464  157.1235 C.ar    1  UNL1        0.0765
      5 C         139.1464  142.5471  156.5973 C.ar    1  UNL1        0.0664
      6 BR        139.5535  141.2539  157.2394 Br      1  UNL1       -0.0461
      7 C         138.2054  142.5410  155.4294 C.ar    1  UNL1        0.0816
      8 N         137.7983  143.8341  154.7874 N.ar    1  UNL1       -0.3357
      9 C         138.3324  145.1333  155.3135 C.ar    1  UNL1        0.1613
     10 N         138.1113  146.5549  154.8889 N.ar    1  UNL1       -0.2081
     11 H         137.1806  143.8301  154.0208 H       1  UNL1        0.1675
     12 C         137.9559  149.5132  158.1243 C.3     1  UNL1        0.0541
     13 C         138.5479  149.8894  156.7985 C.ar    1  UNL1        0.0830
     14 N         138.8026  151.2848  156.3108 N.ar    1  UNL1       -0.1738
     15 N         139.4013  151.1942  154.9384 N.ar    1  UNL1       -0.2531
     16 C         139.8125  152.3517  154.0777 C.3     1  UNL1        0.1533
     17 C         139.5166  149.7426  154.5780 C.ar    1  UNL1        0.0601
     18 C         140.0633  149.1939  153.2935 C.3     1  UNL1        0.0518
     19 C         138.9891  148.9363  155.7276 C.ar    1  UNL1        0.0642
     20 N         140.6217  143.8524  158.2915 N.pl3   1  UNL1       -0.3030
     21 C         142.0648  143.4942  158.0938 C.3     1  UNL1        0.1082
     22 C         143.0058  143.5002  159.2618 C.3     1  UNL1        0.0941
     23 N         142.5038  143.8645  160.6275 N.3     1  UNL1       -0.2659
     24 C         141.0607  144.2228  160.8253 C.3     1  UNL1        0.0941
     25 C         140.1197  144.2167  159.6572 C.3     1  UNL1        0.1082
     26 C         143.4449  143.8706  161.7956 C.3     1  UNL1        0.1008
     27 C         143.8691  142.5761  162.4237 C.ar    1  UNL1        0.0130
     28 C         145.1442  142.5067  163.2107 C.ar    1  UNL1        0.0002
     29 C         145.5684  141.2123  163.8388 C.ar    1  UNL1        0.0204
     30 C         144.7176  139.9873  163.6798 C.ar    1  UNL1        0.0989
     31 N         143.4425  140.0566  162.8928 N.ar    1  UNL1       -0.2426
     32 C         143.0182  141.3510  162.2648 C.ar    1  UNL1        0.0959
@<TRIPOS>BOND
     1    12    13    1
     2    13    14   ar
     3    14    15   ar
     4    15    16    1
     5    15    17   ar
     6    17    18    1
     7    17    19   ar
     8    19     1    1
     9     1     2   ar
    10     2     3   ar
    11     3     4   ar
    12     4    20    1
    13    20    21    1
    14    21    22    1
    15    22    23    1
    16    23    26    1
    17    26    27    1
    18    27    28   ar
    19    28    29   ar
    20    29    30   ar
    21    30    31   ar
    22    31    32   ar
    23    23    24    1
    24    24    25    1
    25     4     5   ar
    26     5     6    1
    27     5     7   ar
    28     7     8   ar
    29     8     9   ar
    30     9    10   ar
    31    19    13   ar
    32    10     1   ar
    33     9     3    1
    34    25    20    1
    35    32    27   ar
    36     8    11    1
@<TRIPOS>MOLECULE
*****
 32 36 0 0 0
SMALL
GASTEIGER

@<TRIPOS>ATOM
      1 C         142.3375  141.7055  158.9150 C.ar    1  UNL1        0.1663
      2 N         142.1455  141.5502  160.3946 N.ar    1  UNL1       -0.2222
      3 C         141.4423  142.7742  160.9017 C.ar    1  UNL1        0.1305
      4 C         140.9915  143.1764  162.2747 C.ar    1  UNL1        0.0765
      5 C         140.2980  144.4903  162.4815 C.ar    1  UNL1        0.0664
      6 BR        139.8472  144.8925  163.8545 Br      1  UNL1       -0.0461
      7 C         140.0553  145.4020  161.3154 C.ar    1  UNL1        0.0816
      8 N         140.5060  144.9998  159.9424 N.ar    1  UNL1       -0.3357
      9 C         141.1995  143.6860  159.7356 C.ar    1  UNL1        0.1613
     10 N         141.7528  143.0254  158.5077 N.ar    1  UNL1       -0.2081
     11 H         140.3467  145.5982  159.1771 H       1  UNL1        0.1675
     12 C         145.2372  142.0713  157.4635 C.3     1  UNL1        0.0541
     13 C         144.3310  140.8829  157.3357 C.ar    1  UNL1        0.0830
     14 N         144.5985  139.6540  156.5183 N.ar    1  UNL1       -0.1738
     15 N         143.4309  138.7263  156.6802 N.ar    1  UNL1       -0.2531
     16 C         143.2791  137.3796  156.0375 C.3     1  UNL1        0.1533
     17 C         142.4418  139.3819  157.5978 C.ar    1  UNL1        0.0601
     18 C         141.1272  138.8058  158.0337 C.3     1  UNL1        0.0518
     19 C         142.9981  140.7147  158.0029 C.ar    1  UNL1        0.0642
     20 N         141.2342  142.2647  163.4409 N.pl3   1  UNL1       -0.3030
     21 C         142.4783  142.4161  164.2650 C.3     1  UNL1        0.1082
     22 C         142.7209  141.5043  165.4311 C.3     1  UNL1        0.0941
     23 N         141.7195  140.4413  165.7731 N.3     1  UNL1       -0.2659
     24 C         140.4754  140.2899  164.9490 C.3     1  UNL1        0.0941
     25 C         140.2327  141.2016  163.7828 C.3     1  UNL1        0.1082
     26 C         141.9621  139.5296  166.9392 C.3     1  UNL1        0.1008
     27 C         141.5577  139.9541  168.3200 C.ar    1  UNL1        0.0130
     28 C         140.1059  140.1199  168.6587 C.ar    1  UNL1        0.0002
     29 C         139.7015  140.5444  170.0393 C.ar    1  UNL1        0.0204
     30 C         140.7490  140.8030  171.0813 C.ar    1  UNL1        0.0989
     31 N         142.2008  140.6372  170.7427 N.ar    1  UNL1       -0.2426
     32 C         142.6052  140.2127  169.3621 C.ar    1  UNL1        0.0959
@<TRIPOS>BOND
     1    12    13    1
     2    13    14   ar
     3    14    15   ar
     4    15    16    1
     5    15    17   ar
     6    17    18    1
     7    17    19   ar
     8    19     1    1
     9     1     2   ar
    10     2     3   ar
    11     3     4   ar
    12     4    20    1
    13    20    21    1
    14    21    22    1
    15    22    23    1
    16    23    26    1
    17    26    27    1
    18    27    28   ar
    19    28    29   ar
    20    29    30   ar
    21    30    31   ar
    22    31    32   ar
    23    23    24    1
    24    24    25    1
    25     4     5   ar
    26     5     6    1
    27     5     7   ar
    28     7     8   ar
    29     8     9   ar
    30     9    10   ar
    31    19    13   ar
    32    10     1   ar
    33     9     3    1
    34    25    20    1
    35    32    27   ar
    36     8    11    1
