@<TRIPOS>MOLECULE
*****
 38 42 0 0 0
SMALL
GASTEIGER

@<TRIPOS>ATOM
      1 C         141.0278  138.7136  159.4902 C.ar    1  UNL1        0.1651
      2 N         142.0079  139.7548  159.9430 N.ar    1  UNL1       -0.2113
      3 C         141.8063  140.4548  161.2543 C.ar    1  UNL1        0.1409
      4 C         140.6245  140.1135  162.1127 C.ar    1  UNL1        0.0785
      5 S         140.1678  140.6323  163.4440 S.2     1  UNL1       -0.0852
      6 C         138.9054  139.9116  163.8139 C.ar    1  UNL1        0.0289
      7 C         138.5818  138.9474  162.7113 C.ar    1  UNL1        0.0236
      8 C         139.6443  139.0723  161.6598 C.ar    1  UNL1        0.0919
      9 N         139.8460  138.3723  160.3486 N.ar    1  UNL1       -0.2259
     10 C         141.6326  136.6136  155.5564 C.ar    1  UNL1        0.2250
     11 C         142.8000  136.8480  156.4688 C.ar    1  UNL1        0.0578
     12 C         142.5983  137.5480  157.7800 C.ar    1  UNL1        0.0094
     13 C         141.2294  138.0136  158.1789 C.ar    1  UNL1        0.0552
     14 C         140.0621  137.7792  157.2666 C.ar    1  UNL1        0.1051
     15 N         140.2637  137.0792  155.9553 N.ar    1  UNL1       -0.2100
     16 C         140.6777  135.7285  153.3082 C.3     1  UNL1        0.2542
     17 O         141.8343  135.9136  154.2452 O.3     1  UNL1       -0.4561
     18 N         142.7865  141.4961  161.7071 N.pl3   1  UNL1       -0.2876
     19 C         144.1506  141.0874  162.1785 C.3     1  UNL1        0.1243
     20 C         145.1308  142.1285  162.6313 C.3     1  UNL1        0.1636
     21 O         144.7470  143.5784  162.6126 O.3     1  UNL1       -0.3501
     22 C         143.3829  143.9872  162.1412 C.3     1  UNL1        0.1636
     23 C         142.4027  142.9460  161.6884 C.3     1  UNL1        0.1243
     24 C         138.1066  140.1186  165.0666 C.3     1  UNL1        0.1268
     25 N         138.5024  139.4186  166.3328 N.pl3   1  UNL1       -0.2718
     26 C         138.1322  137.9801  166.5416 C.3     1  UNL1        0.1154
     27 C         139.2684  140.1570  167.3901 C.ar    1  UNL1        0.2205
     28 N         140.1728  141.2907  167.0070 N.ar    1  UNL1       -0.2119
     29 C         140.9389  142.0292  168.0643 C.ar    1  UNL1        0.1079
     30 C         140.8005  141.6339  169.5046 C.ar    1  UNL1        0.0937
     31 C         139.8961  140.5002  169.8877 C.ar    1  UNL1        0.1079
     32 N         139.1301  139.7617  168.8304 N.ar    1  UNL1       -0.2119
     33 C         141.5665  142.3724  170.5620 C.2     1  UNL1        0.2708
     34 O         141.1814  142.2298  172.0047 O.2     1  UNL1       -0.2680
     35 N         142.7178  143.2533  170.1766 N.am    1  UNL1       -0.1934
     36 O         143.4838  143.9918  171.2339 O.3     1  UNL1       -0.2949
     37 H         142.9706  143.3469  169.2297 H       1  UNL1        0.1825
     38 H         143.1081  143.7907  172.1053 H       1  UNL1        0.2414
@<TRIPOS>BOND
     1    16    17    1
     2    17    10    1
     3    10    11   ar
     4    11    12   ar
     5    12    13   ar
     6    13     1    1
     7     1     2   ar
     8     2     3   ar
     9     3    18    1
    10    18    19    1
    11    19    20    1
    12    20    21    1
    13    21    22    1
    14    22    23    1
    15     3     4   ar
    16     4     5   ar
    17     5     6   ar
    18     6    24    1
    19    24    25    1
    20    25    26    1
    21    25    27    1
    22    27    28   ar
    23    28    29   ar
    24    29    30   ar
    25    30    33    1
    26    33    34    2
    27    33    35   am
    28    35    36    1
    29    30    31   ar
    30    31    32   ar
    31     6     7   ar
    32     7     8   ar
    33     8     9   ar
    34    13    14   ar
    35    14    15   ar
    36    15    10   ar
    37     9     1   ar
    38    23    18    1
    39     8     4   ar
    40    32    27   ar
    41    35    37    1
    42    36    38    1
@<TRIPOS>MOLECULE
*****
 38 42 0 0 0
SMALL
GASTEIGER

@<TRIPOS>ATOM
      1 C         144.3370  140.9552  158.5516 C.ar    1  UNL1        0.1651
      2 N         144.0193  142.1366  159.4195 N.ar    1  UNL1       -0.2113
      3 C         143.3148  141.9375  160.7288 C.ar    1  UNL1        0.1409
      4 C         142.9281  140.5570  161.1700 C.ar    1  UNL1        0.0785
      5 S         142.2307  140.0548  162.3994 S.2     1  UNL1       -0.0852
      6 C         142.1175  138.5630  162.2912 C.ar    1  UNL1        0.0289
      7 C         142.7448  138.1433  160.9950 C.ar    1  UNL1        0.0236
      8 C         143.2458  139.3757  160.3020 C.ar    1  UNL1        0.0919
      9 N         143.9503  139.5748  158.9928 N.ar    1  UNL1       -0.2259
     10 C         146.4504  141.5523  154.6238 C.ar    1  UNL1        0.2250
     11 C         145.4469  140.4477  154.7753 C.ar    1  UNL1        0.0578
     12 C         144.7425  140.2487  156.0845 C.ar    1  UNL1        0.0094
     13 C         145.0415  141.1543  157.2423 C.ar    1  UNL1        0.0552
     14 C         146.0449  142.2588  157.0908 C.ar    1  UNL1        0.1051
     15 N         146.7494  142.4579  155.7815 N.ar    1  UNL1       -0.2100
     16 C         148.5008  142.4123  153.2800 C.3     1  UNL1        0.2542
     17 O         147.1548  141.7513  153.3145 O.3     1  UNL1       -0.4561
     18 N         142.9971  143.1190  161.5968 N.pl3   1  UNL1       -0.2876
     19 C         141.6251  143.7243  161.5666 C.3     1  UNL1        0.1243
     20 C         141.3073  144.9058  162.4345 C.3     1  UNL1        0.1636
     21 O         142.3616  145.4818  163.3325 O.3     1  UNL1       -0.3501
     22 C         143.7337  144.8764  163.3627 C.3     1  UNL1        0.1636
     23 C         144.0515  143.6950  162.4948 C.3     1  UNL1        0.1243
     24 C         141.4875  137.6510  163.3019 C.3     1  UNL1        0.1268
     25 N         140.1968  138.0388  163.9604 N.pl3   1  UNL1       -0.2718
     26 C         138.8943  137.8037  163.2543 C.3     1  UNL1        0.1154
     27 C         140.2084  138.6616  165.3249 C.ar    1  UNL1        0.2205
     28 N         138.9234  138.8446  166.0767 N.ar    1  UNL1       -0.2119
     29 C         138.9349  139.4674  167.4412 C.ar    1  UNL1        0.1079
     30 C         140.2314  139.9073  168.0539 C.ar    1  UNL1        0.0937
     31 C         141.5165  139.7244  167.3021 C.ar    1  UNL1        0.1079
     32 N         141.5049  139.1015  165.9376 N.ar    1  UNL1       -0.2119
     33 C         140.2431  140.5301  169.4185 C.2     1  UNL1        0.2708
     34 O         140.0303  142.0071  169.5707 O.2     1  UNL1       -0.2680
     35 N         140.4675  139.6759  170.6309 N.am    1  UNL1       -0.1934
     36 O         140.4792  140.2986  171.9955 O.3     1  UNL1       -0.2949
     37 H         140.6072  138.7065  170.5310 H       1  UNL1        0.1825
     38 H         140.3278  141.2534  171.9164 H       1  UNL1        0.2414
@<TRIPOS>BOND
     1    16    17    1
     2    17    10    1
     3    10    11   ar
     4    11    12   ar
     5    12    13   ar
     6    13     1    1
     7     1     2   ar
     8     2     3   ar
     9     3    18    1
    10    18    19    1
    11    19    20    1
    12    20    21    1
    13    21    22    1
    14    22    23    1
    15     3     4   ar
    16     4     5   ar
    17     5     6   ar
    18     6    24    1
    19    24    25    1
    20    25    26    1
    21    25    27    1
    22    27    28   ar
    23    28    29   ar
    24    29    30   ar
    25    30    33    1
    26    33    34    2
    27    33    35   am
    28    35    36    1
    29    30    31   ar
    30    31    32   ar
    31     6     7   ar
    32     7     8   ar
    33     8     9   ar
    34    13    14   ar
    35    14    15   ar
    36    15    10   ar
    37     9     1   ar
    38    23    18    1
    39     8     4   ar
    40    32    27   ar
    41    35    37    1
    42    36    38    1
@<TRIPOS>MOLECULE
*****
 38 42 0 0 0
SMALL
GASTEIGER

@<TRIPOS>ATOM
      1 C         144.5371  141.2500  158.2973 C.ar    1  UNL1        0.1651
      2 N         144.1966  142.3617  159.2449 N.ar    1  UNL1       -0.2113
      3 C         143.4264  142.0693  160.4985 C.ar    1  UNL1        0.1409
      4 C         142.9968  140.6651  160.8043 C.ar    1  UNL1        0.0785
      5 S         142.2328  140.0771  161.9534 S.2     1  UNL1       -0.0852
      6 C         142.1011  138.6018  161.7159 C.ar    1  UNL1        0.0289
      7 C         142.7838  138.2782  160.4201 C.ar    1  UNL1        0.0236
      8 C         143.3373  139.5533  159.8566 C.ar    1  UNL1        0.0919
      9 N         144.1075  139.8458  158.6031 N.ar    1  UNL1       -0.2259
     10 C         146.8476  142.1271  154.5366 C.ar    1  UNL1        0.2250
     11 C         145.6971  141.1652  154.5029 C.ar    1  UNL1        0.0578
     12 C         144.9270  140.8729  155.7565 C.ar    1  UNL1        0.0094
     13 C         145.3073  141.5424  157.0437 C.ar    1  UNL1        0.0552
     14 C         146.4578  142.5043  157.0774 C.ar    1  UNL1        0.1051
     15 N         147.2280  142.7967  155.8238 N.ar    1  UNL1       -0.2100
     16 C         148.5208  143.6155  153.2193 C.3     1  UNL1        0.2542
     17 O         147.6177  142.4195  153.2830 O.3     1  UNL1       -0.4561
     18 N         143.0860  143.1812  161.4461 N.pl3   1  UNL1       -0.2876
     19 C         144.1349  143.7281  162.3684 C.3     1  UNL1        0.1243
     20 C         143.7945  144.8399  163.3160 C.3     1  UNL1        0.1636
     21 O         142.4051  145.4047  163.3413 O.3     1  UNL1       -0.3501
     22 C         141.3562  144.8578  162.4190 C.3     1  UNL1        0.1636
     23 C         141.6966  143.7460  161.4713 C.3     1  UNL1        0.1243
     24 C         141.4084  137.6222  162.6162 C.3     1  UNL1        0.1268
     25 N         140.4852  138.1145  163.6911 N.pl3   1  UNL1       -0.2718
     26 C         139.0023  138.1119  163.4651 C.3     1  UNL1        0.1154
     27 C         141.0448  138.6094  164.9918 C.ar    1  UNL1        0.2205
     28 N         140.1881  139.4238  165.9153 N.ar    1  UNL1       -0.2119
     29 C         140.7476  139.9187  167.2161 C.ar    1  UNL1        0.1079
     30 C         142.1638  139.5992  167.5933 C.ar    1  UNL1        0.0937
     31 C         143.0204  138.7847  166.6698 C.ar    1  UNL1        0.1079
     32 N         142.4609  138.2898  165.3691 N.ar    1  UNL1       -0.2119
     33 C         142.7234  140.0940  168.8941 C.2     1  UNL1        0.2708
     34 O         142.9543  141.5616  169.1015 O.2     1  UNL1       -0.2680
     35 N         143.0521  139.1212  169.9876 N.am    1  UNL1       -0.1934
     36 O         143.6117  139.6160  171.2884 O.3     1  UNL1       -0.2949
     37 H         142.9005  138.1580  169.8515 H       1  UNL1        0.1825
     38 H         143.6980  140.5816  171.2568 H       1  UNL1        0.2414
@<TRIPOS>BOND
     1    16    17    1
     2    17    10    1
     3    10    11   ar
     4    11    12   ar
     5    12    13   ar
     6    13     1    1
     7     1     2   ar
     8     2     3   ar
     9     3    18    1
    10    18    19    1
    11    19    20    1
    12    20    21    1
    13    21    22    1
    14    22    23    1
    15     3     4   ar
    16     4     5   ar
    17     5     6   ar
    18     6    24    1
    19    24    25    1
    20    25    26    1
    21    25    27    1
    22    27    28   ar
    23    28    29   ar
    24    29    30   ar
    25    30    33    1
    26    33    34    2
    27    33    35   am
    28    35    36    1
    29    30    31   ar
    30    31    32   ar
    31     6     7   ar
    32     7     8   ar
    33     8     9   ar
    34    13    14   ar
    35    14    15   ar
    36    15    10   ar
    37     9     1   ar
    38    23    18    1
    39     8     4   ar
    40    32    27   ar
    41    35    37    1
    42    36    38    1
@<TRIPOS>MOLECULE
*****
 38 42 0 0 0
SMALL
GASTEIGER

@<TRIPOS>ATOM
      1 C         139.8987  145.0887  157.4871 C.ar    1  UNL1        0.1651
      2 N         140.6261  145.3674  158.7688 N.ar    1  UNL1       -0.2113
      3 C         140.6577  144.3321  159.8538 C.ar    1  UNL1        0.1409
      4 C         139.9617  143.0180  159.6570 C.ar    1  UNL1        0.0785
      5 S         139.8216  141.8142  160.5408 S.2     1  UNL1       -0.0852
      6 C         139.0076  140.7914  159.8051 C.ar    1  UNL1        0.0289
      7 C         138.6445  141.3631  158.4667 C.ar    1  UNL1        0.0236
      8 C         139.2342  142.7393  158.3752 C.ar    1  UNL1        0.0919
      9 N         139.2027  143.7746  157.2902 N.ar    1  UNL1       -0.2259
     10 C         139.8042  148.1944  154.2320 C.ar    1  UNL1        0.2250
     11 C         140.6443  146.9625  154.0691 C.ar    1  UNL1        0.0578
     12 C         140.6758  145.9273  155.1541 C.ar    1  UNL1        0.0094
     13 C         139.8671  146.1240  156.4020 C.ar    1  UNL1        0.0552
     14 C         139.0270  147.3558  156.5650 C.ar    1  UNL1        0.1051
     15 N         138.9955  148.3911  155.4799 N.ar    1  UNL1       -0.2100
     16 C         139.4727  150.6602  153.4838 C.3     1  UNL1        0.2542
     17 O         139.7727  149.2297  153.1470 O.3     1  UNL1       -0.4561
     18 N         141.3852  144.6110  161.1357 N.pl3   1  UNL1       -0.2876
     19 C         142.7987  144.1415  161.3131 C.3     1  UNL1        0.1243
     20 C         143.5263  144.4203  162.5948 C.3     1  UNL1        0.1636
     21 O         142.8403  145.1686  163.6991 O.3     1  UNL1       -0.3501
     22 C         141.4268  145.6380  163.5217 C.3     1  UNL1        0.1636
     23 C         140.6992  145.3592  162.2399 C.3     1  UNL1        0.1243
     24 C         138.6239  139.4349  160.3179 C.3     1  UNL1        0.1268
     25 N         139.5027  138.7318  161.3095 N.pl3   1  UNL1       -0.2718
     26 C         140.7695  138.0710  160.8527 C.3     1  UNL1        0.1154
     27 C         139.1148  138.6895  162.7578 C.ar    1  UNL1        0.2205
     28 N         139.5106  137.5176  163.6063 N.ar    1  UNL1       -0.2119
     29 C         139.1228  137.4752  165.0546 C.ar    1  UNL1        0.1079
     30 C         138.3391  138.6048  165.6545 C.ar    1  UNL1        0.0937
     31 C         137.9433  139.7768  164.8061 C.ar    1  UNL1        0.1079
     32 N         138.3312  139.8191  163.3577 N.ar    1  UNL1       -0.2119
     33 C         137.9512  138.5625  167.1030 C.2     1  UNL1        0.2708
     34 O         138.7159  139.3717  168.1082 O.2     1  UNL1       -0.2680
     35 N         136.7986  137.7110  167.5461 N.am    1  UNL1       -0.1934
     36 O         136.4106  137.6686  168.9944 O.3     1  UNL1       -0.2949
     37 H         136.2967  137.1798  166.8863 H       1  UNL1        0.1825
     38 H         137.0019  138.2441  169.5045 H       1  UNL1        0.2414
@<TRIPOS>BOND
     1    16    17    1
     2    17    10    1
     3    10    11   ar
     4    11    12   ar
     5    12    13   ar
     6    13     1    1
     7     1     2   ar
     8     2     3   ar
     9     3    18    1
    10    18    19    1
    11    19    20    1
    12    20    21    1
    13    21    22    1
    14    22    23    1
    15     3     4   ar
    16     4     5   ar
    17     5     6   ar
    18     6    24    1
    19    24    25    1
    20    25    26    1
    21    25    27    1
    22    27    28   ar
    23    28    29   ar
    24    29    30   ar
    25    30    33    1
    26    33    34    2
    27    33    35   am
    28    35    36    1
    29    30    31   ar
    30    31    32   ar
    31     6     7   ar
    32     7     8   ar
    33     8     9   ar
    34    13    14   ar
    35    14    15   ar
    36    15    10   ar
    37     9     1   ar
    38    23    18    1
    39     8     4   ar
    40    32    27   ar
    41    35    37    1
    42    36    38    1
@<TRIPOS>MOLECULE
*****
 38 42 0 0 0
SMALL
GASTEIGER

@<TRIPOS>ATOM
      1 C         139.6967  143.0086  159.3945 C.ar    1  UNL1        0.1651
      2 N         140.7771  141.9726  159.4907 N.ar    1  UNL1       -0.2113
      3 C         140.8321  141.0540  160.6754 C.ar    1  UNL1        0.1409
      4 C         139.8067  141.1715  161.7638 C.ar    1  UNL1        0.0785
      5 S         139.6077  140.4115  163.0416 S.2     1  UNL1       -0.0852
      6 C         138.4043  140.9779  163.7351 C.ar    1  UNL1        0.0289
      7 C         137.8595  142.0879  162.8859 C.ar    1  UNL1        0.0236
      8 C         138.7262  142.2076  161.6675 C.ar    1  UNL1        0.0919
      9 N         138.6712  143.1261  160.4829 N.ar    1  UNL1       -0.2259
     10 C         139.5317  145.7643  155.8408 C.ar    1  UNL1        0.2250
     11 C         140.2449  146.1920  157.0891 C.ar    1  UNL1        0.0578
     12 C         140.2999  145.2735  158.2737 C.ar    1  UNL1        0.0094
     13 C         139.6417  143.9271  158.2099 C.ar    1  UNL1        0.0552
     14 C         138.9285  143.4994  156.9617 C.ar    1  UNL1        0.1051
     15 N         138.8734  144.4180  155.7770 N.ar    1  UNL1       -0.2100
     16 C         140.6837  146.8524  153.7820 C.3     1  UNL1        0.2542
     17 O         139.4767  146.6829  154.6563 O.3     1  UNL1       -0.4561
     18 N         141.9126  140.0180  160.7715 N.pl3   1  UNL1       -0.2876
     19 C         141.8702  138.8060  159.8887 C.3     1  UNL1        0.1243
     20 C         142.9507  137.7700  159.9847 C.3     1  UNL1        0.1636
     21 O         144.0735  137.9459  160.9637 O.3     1  UNL1       -0.3501
     22 C         144.1158  139.1578  161.8465 C.3     1  UNL1        0.1636
     23 C         143.0354  140.1939  161.7505 C.3     1  UNL1        0.1243
     24 C         137.8439  140.5155  165.0474 C.3     1  UNL1        0.1268
     25 N         138.6903  139.6985  165.9781 N.pl3   1  UNL1       -0.2718
     26 C         138.7957  138.2143  165.7880 C.3     1  UNL1        0.1154
     27 C         139.4311  140.3656  167.0989 C.ar    1  UNL1        0.2205
     28 N         139.2717  139.8670  168.5046 N.ar    1  UNL1       -0.2119
     29 C         140.0125  140.5341  169.6254 C.ar    1  UNL1        0.1079
     30 C         140.9126  141.6996  169.3405 C.ar    1  UNL1        0.0937
     31 C         141.0720  142.1982  167.9348 C.ar    1  UNL1        0.1079
     32 N         140.3312  141.5311  166.8140 N.ar    1  UNL1       -0.2119
     33 C         141.6535  142.3668  170.4613 C.2     1  UNL1        0.2708
     34 O         141.2416  142.1226  171.8829 O.2     1  UNL1       -0.2680
     35 N         142.8063  143.2782  170.1605 N.am    1  UNL1       -0.1934
     36 O         143.5472  143.9453  171.2812 O.3     1  UNL1       -0.2949
     37 H         143.0766  143.4385  169.2275 H       1  UNL1        0.1825
     38 H         143.1562  143.6824  172.1290 H       1  UNL1        0.2414
@<TRIPOS>BOND
     1    16    17    1
     2    17    10    1
     3    10    11   ar
     4    11    12   ar
     5    12    13   ar
     6    13     1    1
     7     1     2   ar
     8     2     3   ar
     9     3    18    1
    10    18    19    1
    11    19    20    1
    12    20    21    1
    13    21    22    1
    14    22    23    1
    15     3     4   ar
    16     4     5   ar
    17     5     6   ar
    18     6    24    1
    19    24    25    1
    20    25    26    1
    21    25    27    1
    22    27    28   ar
    23    28    29   ar
    24    29    30   ar
    25    30    33    1
    26    33    34    2
    27    33    35   am
    28    35    36    1
    29    30    31   ar
    30    31    32   ar
    31     6     7   ar
    32     7     8   ar
    33     8     9   ar
    34    13    14   ar
    35    14    15   ar
    36    15    10   ar
    37     9     1   ar
    38    23    18    1
    39     8     4   ar
    40    32    27   ar
    41    35    37    1
    42    36    38    1
@<TRIPOS>MOLECULE
*****
 38 42 0 0 0
SMALL
GASTEIGER

@<TRIPOS>ATOM
      1 C         140.2308  143.6510  159.6672 C.ar    1  UNL1        0.1651
      2 N         141.5622  143.5088  160.3430 N.ar    1  UNL1       -0.2113
      3 C         141.6553  142.8439  161.6844 C.ar    1  UNL1        0.1409
      4 C         140.4168  142.3213  162.3500 C.ar    1  UNL1        0.0785
      5 S         140.1994  141.6254  163.6608 S.2     1  UNL1       -0.0852
      6 C         138.7334  141.3376  163.7951 C.ar    1  UNL1        0.0289
      7 C         138.0448  141.8556  162.5673 C.ar    1  UNL1        0.0236
      8 C         139.0853  142.4637  161.6742 C.ar    1  UNL1        0.0919
      9 N         138.9922  143.1285  160.3328 N.ar    1  UNL1       -0.2259
     10 C         139.9515  145.6457  155.6431 C.ar    1  UNL1        0.2250
     11 C         140.2903  146.4553  156.8596 C.ar    1  UNL1        0.0578
     12 C         140.3834  145.7904  158.2009 C.ar    1  UNL1        0.0094
     13 C         140.1376  144.3159  158.3258 C.ar    1  UNL1        0.0552
     14 C         139.7988  143.5064  157.1094 C.ar    1  UNL1        0.1051
     15 N         139.7057  144.1713  155.7679 N.ar    1  UNL1       -0.2100
     16 C         139.9581  147.8036  154.1962 C.3     1  UNL1        0.2542
     17 O         139.8584  146.3106  154.3017 O.3     1  UNL1       -0.4561
     18 N         142.9870  142.7016  162.3602 N.pl3   1  UNL1       -0.2876
     19 C         143.2639  143.4419  163.6350 C.3     1  UNL1        0.1243
     20 C         144.5954  143.2997  164.3108 C.3     1  UNL1        0.1636
     21 O         145.6500  142.4172  163.7117 O.3     1  UNL1       -0.3501
     22 C         145.3731  141.6770  162.4368 C.3     1  UNL1        0.1636
     23 C         144.0416  141.8192  161.7610 C.3     1  UNL1        0.1243
     24 C         138.0720  140.6520  164.9539 C.3     1  UNL1        0.1268
     25 N         138.7102  139.4448  165.5748 N.pl3   1  UNL1       -0.2718
     26 C         138.4829  138.0868  164.9798 C.3     1  UNL1        0.1154
     27 C         139.5755  139.5957  166.7906 C.ar    1  UNL1        0.2205
     28 N         138.9472  139.7849  168.1395 N.ar    1  UNL1       -0.2119
     29 C         139.8125  139.9358  169.3554 C.ar    1  UNL1        0.1079
     30 C         141.3061  139.8974  169.2225 C.ar    1  UNL1        0.0937
     31 C         141.9344  139.7082  167.8736 C.ar    1  UNL1        0.1079
     32 N         141.0691  139.5573  166.6577 N.ar    1  UNL1       -0.2119
     33 C         142.1716  140.0483  170.4384 C.2     1  UNL1        0.2708
     34 O         141.8355  141.0790  171.4751 O.2     1  UNL1       -0.2680
     35 N         143.3731  139.1683  170.6175 N.am    1  UNL1       -0.1934
     36 O         144.2385  139.3191  171.8334 O.3     1  UNL1       -0.2949
     37 H         143.5936  138.4918  169.9371 H       1  UNL1        0.1825
     38 H         143.8839  140.0241  172.3973 H       1  UNL1        0.2414
@<TRIPOS>BOND
     1    16    17    1
     2    17    10    1
     3    10    11   ar
     4    11    12   ar
     5    12    13   ar
     6    13     1    1
     7     1     2   ar
     8     2     3   ar
     9     3    18    1
    10    18    19    1
    11    19    20    1
    12    20    21    1
    13    21    22    1
    14    22    23    1
    15     3     4   ar
    16     4     5   ar
    17     5     6   ar
    18     6    24    1
    19    24    25    1
    20    25    26    1
    21    25    27    1
    22    27    28   ar
    23    28    29   ar
    24    29    30   ar
    25    30    33    1
    26    33    34    2
    27    33    35   am
    28    35    36    1
    29    30    31   ar
    30    31    32   ar
    31     6     7   ar
    32     7     8   ar
    33     8     9   ar
    34    13    14   ar
    35    14    15   ar
    36    15    10   ar
    37     9     1   ar
    38    23    18    1
    39     8     4   ar
    40    32    27   ar
    41    35    37    1
    42    36    38    1
@<TRIPOS>MOLECULE
*****
 38 42 0 0 0
SMALL
GASTEIGER

@<TRIPOS>ATOM
      1 C         144.3757  141.7364  157.5714 C.ar    1  UNL1        0.1651
      2 N         144.6848  142.2248  158.9554 N.ar    1  UNL1       -0.2113
      3 C         143.8705  141.7439  160.1198 C.ar    1  UNL1        0.1409
      4 C         142.7470  140.7747  159.9000 C.ar    1  UNL1        0.0785
      5 S         141.7785  140.1295  160.8463 S.2     1  UNL1       -0.0852
      6 C         140.8708  139.2423  160.0470 C.ar    1  UNL1        0.0289
      7 C         141.2783  139.3392  158.6067 C.ar    1  UNL1        0.0236
      8 C         142.4379  140.2864  158.5158 C.ar    1  UNL1        0.0919
      9 N         143.2522  140.7672  157.3515 N.ar    1  UNL1       -0.2259
     10 C         146.8188  143.1788  154.0784 C.ar    1  UNL1        0.2250
     11 C         147.5002  142.5917  155.2788 C.ar    1  UNL1        0.0578
     12 C         146.6858  142.1109  156.4431 C.ar    1  UNL1        0.0094
     13 C         145.1901  142.2172  156.4070 C.ar    1  UNL1        0.0552
     14 C         144.5087  142.8043  155.2066 C.ar    1  UNL1        0.1051
     15 N         145.3230  143.2851  154.0422 N.ar    1  UNL1       -0.2100
     16 C         149.1264  143.7457  153.0278 C.3     1  UNL1        0.2542
     17 O         147.6332  143.6596  152.9141 O.3     1  UNL1       -0.4561
     18 N         144.1797  142.2324  161.5040 N.pl3   1  UNL1       -0.2876
     19 C         145.0304  141.4027  162.4194 C.3     1  UNL1        0.1243
     20 C         145.3396  141.8911  163.8036 C.3     1  UNL1        0.1636
     21 O         144.7982  143.2091  164.2722 O.3     1  UNL1       -0.3501
     22 C         143.9475  144.0387  163.3568 C.3     1  UNL1        0.1636
     23 C         143.6382  143.5504  161.9727 C.3     1  UNL1        0.1243
     24 C         139.7519  138.4051  160.5923 C.3     1  UNL1        0.1268
     25 N         138.5955  139.0598  161.2880 N.pl3   1  UNL1       -0.2718
     26 C         137.5279  139.7438  160.4866 C.3     1  UNL1        0.1154
     27 C         138.5068  139.0306  162.7851 C.ar    1  UNL1        0.2205
     28 N         138.0965  140.2624  163.5362 N.ar    1  UNL1       -0.2119
     29 C         138.0077  140.2333  165.0333 C.ar    1  UNL1        0.1079
     30 C         138.3292  138.9723  165.7792 C.ar    1  UNL1        0.0937
     31 C         138.7394  137.7404  165.0281 C.ar    1  UNL1        0.1079
     32 N         138.8282  137.7695  163.5310 N.ar    1  UNL1       -0.2119
     33 C         138.2404  138.9430  167.2763 C.2     1  UNL1        0.2708
     34 O         137.1524  138.1588  167.9480 O.2     1  UNL1       -0.2680
     35 N         139.2398  139.6980  168.1017 N.am    1  UNL1       -0.1934
     36 O         139.1511  139.6688  169.5988 O.3     1  UNL1       -0.2949
     37 H         139.9539  140.2127  167.6609 H       1  UNL1        0.1825
     38 H         138.3972  139.1207  169.8674 H       1  UNL1        0.2414
@<TRIPOS>BOND
     1    16    17    1
     2    17    10    1
     3    10    11   ar
     4    11    12   ar
     5    12    13   ar
     6    13     1    1
     7     1     2   ar
     8     2     3   ar
     9     3    18    1
    10    18    19    1
    11    19    20    1
    12    20    21    1
    13    21    22    1
    14    22    23    1
    15     3     4   ar
    16     4     5   ar
    17     5     6   ar
    18     6    24    1
    19    24    25    1
    20    25    26    1
    21    25    27    1
    22    27    28   ar
    23    28    29   ar
    24    29    30   ar
    25    30    33    1
    26    33    34    2
    27    33    35   am
    28    35    36    1
    29    30    31   ar
    30    31    32   ar
    31     6     7   ar
    32     7     8   ar
    33     8     9   ar
    34    13    14   ar
    35    14    15   ar
    36    15    10   ar
    37     9     1   ar
    38    23    18    1
    39     8     4   ar
    40    32    27   ar
    41    35    37    1
    42    36    38    1
@<TRIPOS>MOLECULE
*****
 38 42 0 0 0
SMALL
GASTEIGER

@<TRIPOS>ATOM
      1 C         141.2768  138.2064  158.1935 C.ar    1  UNL1        0.1651
      2 N         142.3868  138.8979  158.9280 N.ar    1  UNL1       -0.2113
      3 C         142.0739  139.7912  160.0917 C.ar    1  UNL1        0.1409
      4 C         140.6508  139.9929  160.5208 C.ar    1  UNL1        0.0785
      5 S         140.0406  140.8079  161.6224 S.2     1  UNL1       -0.0852
      6 C         138.5534  140.6200  161.5686 C.ar    1  UNL1        0.0289
      7 C         138.2444  139.6890  160.4339 C.ar    1  UNL1        0.0236
      8 C         139.5407  139.3014  159.7862 C.ar    1  UNL1        0.0919
      9 N         139.8538  138.4082  158.6226 N.ar    1  UNL1       -0.2259
     10 C         142.2158  135.5266  154.7025 C.ar    1  UNL1        0.2250
     11 C         143.2942  135.8915  155.6792 C.ar    1  UNL1        0.0578
     12 C         142.9811  136.7848  156.8429 C.ar    1  UNL1        0.0094
     13 C         141.5898  137.3131  157.0298 C.ar    1  UNL1        0.0552
     14 C         140.5115  136.9482  156.0531 C.ar    1  UNL1        0.1051
     15 N         140.8244  136.0549  154.8894 N.ar    1  UNL1       -0.2100
     16 C         141.6350  134.6299  152.3343 C.3     1  UNL1        0.2542
     17 O         142.5288  134.6333  153.5388 O.3     1  UNL1       -0.4561
     18 N         143.1840  140.4827  160.8262 N.pl3   1  UNL1       -0.2876
     19 C         143.7233  141.7860  160.3157 C.3     1  UNL1        0.1243
     20 C         144.8334  142.4776  161.0502 C.3     1  UNL1        0.1636
     21 O         145.4042  141.8658  162.2950 O.3     1  UNL1       -0.3501
     22 C         144.8650  140.5625  162.8055 C.3     1  UNL1        0.1636
     23 C         143.7549  139.8709  162.0711 C.3     1  UNL1        0.1243
     24 C         137.5511  141.2522  162.4882 C.3     1  UNL1        0.1268
     25 N         138.0087  142.1902  163.5656 N.pl3   1  UNL1       -0.2718
     26 C         137.8703  143.6720  163.3785 C.3     1  UNL1        0.1154
     27 C         138.6047  141.6463  164.8301 C.ar    1  UNL1        0.2205
     28 N         139.5403  142.4919  165.6424 N.ar    1  UNL1       -0.2119
     29 C         140.1363  141.9481  166.9069 C.ar    1  UNL1        0.1079
     30 C         139.7969  140.5588  167.3591 C.ar    1  UNL1        0.0937
     31 C         138.8614  139.7132  166.5468 C.ar    1  UNL1        0.1079
     32 N         138.2653  140.2570  165.2823 N.ar    1  UNL1       -0.2119
     33 C         140.3930  140.0149  168.6237 C.2     1  UNL1        0.2708
     34 O         141.8423  139.6306  168.6650 O.2     1  UNL1       -0.2680
     35 N         139.5396  139.8554  169.8469 N.am    1  UNL1       -0.1934
     36 O         140.1355  139.3115  171.1114 O.3     1  UNL1       -0.2949
     37 H         138.5883  140.1076  169.8198 H       1  UNL1        0.1825
     38 H         141.0745  139.1152  170.9680 H       1  UNL1        0.2414
@<TRIPOS>BOND
     1    16    17    1
     2    17    10    1
     3    10    11   ar
     4    11    12   ar
     5    12    13   ar
     6    13     1    1
     7     1     2   ar
     8     2     3   ar
     9     3    18    1
    10    18    19    1
    11    19    20    1
    12    20    21    1
    13    21    22    1
    14    22    23    1
    15     3     4   ar
    16     4     5   ar
    17     5     6   ar
    18     6    24    1
    19    24    25    1
    20    25    26    1
    21    25    27    1
    22    27    28   ar
    23    28    29   ar
    24    29    30   ar
    25    30    33    1
    26    33    34    2
    27    33    35   am
    28    35    36    1
    29    30    31   ar
    30    31    32   ar
    31     6     7   ar
    32     7     8   ar
    33     8     9   ar
    34    13    14   ar
    35    14    15   ar
    36    15    10   ar
    37     9     1   ar
    38    23    18    1
    39     8     4   ar
    40    32    27   ar
    41    35    37    1
    42    36    38    1
@<TRIPOS>MOLECULE
*****
 38 42 0 0 0
SMALL
GASTEIGER

@<TRIPOS>ATOM
      1 C         141.3413  143.9968  158.9581 C.ar    1  UNL1        0.1651
      2 N         140.4249  142.8412  159.2312 N.ar    1  UNL1       -0.2113
      3 C         140.6070  142.0160  160.4705 C.ar    1  UNL1        0.1409
      4 C         141.7058  142.3465  161.4368 C.ar    1  UNL1        0.0785
      5 S         142.1259  141.7177  162.7322 S.2     1  UNL1       -0.0852
      6 C         143.3020  142.4847  163.2597 C.ar    1  UNL1        0.0289
      7 C         143.6088  143.5876  162.2903 C.ar    1  UNL1        0.0236
      8 C         142.6222  143.5021  161.1637 C.ar    1  UNL1        0.0919
      9 N         142.4400  144.3273  159.9244 N.ar    1  UNL1       -0.2259
     10 C         140.7947  146.4725  155.2403 C.ar    1  UNL1        0.2250
     11 C         139.9187  146.7094  156.4346 C.ar    1  UNL1        0.0578
     12 C         140.1009  145.8842  157.6739 C.ar    1  UNL1        0.0094
     13 C         141.1591  144.8220  157.7188 C.ar    1  UNL1        0.0552
     14 C         142.0351  144.5851  156.5245 C.ar    1  UNL1        0.1051
     15 N         141.8529  145.4103  155.2852 N.ar    1  UNL1       -0.2100
     16 C         139.8094  148.5634  154.0542 C.3     1  UNL1        0.2542
     17 O         140.6125  147.2977  154.0010 O.3     1  UNL1       -0.4561
     18 N         139.6905  140.8604  160.7436 N.pl3   1  UNL1       -0.2876
     19 C         138.3716  141.0926  161.4193 C.3     1  UNL1        0.1243
     20 C         137.4550  139.9371  161.6924 C.3     1  UNL1        0.1636
     21 O         137.8573  138.5493  161.2896 O.3     1  UNL1       -0.3501
     22 C         139.1762  138.3171  160.6139 C.3     1  UNL1        0.1636
     23 C         140.0928  139.4726  160.3408 C.3     1  UNL1        0.1243
     24 C         144.0416  142.1991  164.5331 C.3     1  UNL1        0.1268
     25 N         143.6141  141.0590  165.4091 N.pl3   1  UNL1       -0.2718
     26 C         144.1374  139.6773  165.1503 C.3     1  UNL1        0.1154
     27 C         142.6634  141.3006  166.5439 C.ar    1  UNL1        0.2205
     28 N         141.7136  142.4605  166.4926 N.ar    1  UNL1       -0.2119
     29 C         140.7629  142.7021  167.6273 C.ar    1  UNL1        0.1079
     30 C         140.7620  141.7839  168.8134 C.ar    1  UNL1        0.0937
     31 C         141.7118  140.6241  168.8648 C.ar    1  UNL1        0.1079
     32 N         142.6625  140.3824  167.7300 N.ar    1  UNL1       -0.2119
     33 C         139.8112  142.0255  169.9483 C.2     1  UNL1        0.2708
     34 O         138.9779  140.8981  170.4816 O.2     1  UNL1       -0.2680
     35 N         139.6939  143.3946  170.5498 N.am    1  UNL1       -0.1934
     36 O         138.7433  143.6363  171.6846 O.3     1  UNL1       -0.2949
     37 H         140.2409  144.1346  170.1998 H       1  UNL1        0.1825
     38 H         138.2863  142.8096  171.9053 H       1  UNL1        0.2414
@<TRIPOS>BOND
     1    16    17    1
     2    17    10    1
     3    10    11   ar
     4    11    12   ar
     5    12    13   ar
     6    13     1    1
     7     1     2   ar
     8     2     3   ar
     9     3    18    1
    10    18    19    1
    11    19    20    1
    12    20    21    1
    13    21    22    1
    14    22    23    1
    15     3     4   ar
    16     4     5   ar
    17     5     6   ar
    18     6    24    1
    19    24    25    1
    20    25    26    1
    21    25    27    1
    22    27    28   ar
    23    28    29   ar
    24    29    30   ar
    25    30    33    1
    26    33    34    2
    27    33    35   am
    28    35    36    1
    29    30    31   ar
    30    31    32   ar
    31     6     7   ar
    32     7     8   ar
    33     8     9   ar
    34    13    14   ar
    35    14    15   ar
    36    15    10   ar
    37     9     1   ar
    38    23    18    1
    39     8     4   ar
    40    32    27   ar
    41    35    37    1
    42    36    38    1
