@<TRIPOS>MOLECULE
*****
 31 34 0 0 0
SMALL
GASTEIGER

@<TRIPOS>ATOM
      1 C         141.6686  143.3690  164.4146 C.ar    1  UNL1       -0.0039
      2 C         142.1584  144.7024  163.9330 C.ar    1  UNL1       -0.0003
      3 C         143.5676  145.1310  164.2167 C.ar    1  UNL1       -0.0000
      4 C         144.4870  144.2260  164.9822 C.ar    1  UNL1       -0.0003
      5 C         143.9971  142.8925  165.4638 C.ar    1  UNL1       -0.0042
      6 C         142.5879  142.4640  165.1800 C.ar    1  UNL1       -0.0215
      7 C         138.5630  141.5928  162.6968 C.ar    1  UNL1        0.0536
      8 C         137.4411  142.0833  163.5632 C.ar    1  UNL1        0.0045
      9 C         137.7283  143.0023  164.7134 C.ar    1  UNL1        0.0001
     10 C         139.1374  143.4309  164.9972 C.ar    1  UNL1       -0.0000
     11 C         140.2593  142.9404  164.1308 C.ar    1  UNL1       -0.0002
     12 C         139.9721  142.0214  162.9806 C.ar    1  UNL1        0.0045
     13 C         138.0431  140.2736  158.9902 C.3     1  UNL1        0.1152
     14 N         138.3303  141.1927  160.1403 N.am    1  UNL1       -0.2726
     15 C         138.6720  142.6306  159.8842 C.3     1  UNL1        0.1152
     16 C         138.2758  140.6738  161.5467 C.2     1  UNL1        0.2491
     17 O         137.9341  139.2359  161.8028 O.2     1  UNL1       -0.2699
     18 C         142.0981  141.1306  165.6617 C.3     1  UNL1        0.0352
     19 C         141.3029  141.0372  166.9302 C.3     1  UNL1        0.0520
     20 C         140.0595  140.1995  166.9760 C.ar    1  UNL1        0.0011
     21 C         139.5066  139.6082  165.7132 C.ar    1  UNL1       -0.0008
     22 C         138.2632  138.7705  165.7590 C.ar    1  UNL1        0.0204
     23 C         137.5726  138.5241  167.0676 C.ar    1  UNL1        0.0989
     24 N         138.1256  139.1153  168.3304 N.ar    1  UNL1       -0.2426
     25 C         139.3691  139.9531  168.2846 C.ar    1  UNL1        0.0949
     26 C         141.7513  141.7816  168.1529 C.ar    1  UNL1        0.0011
     27 C         143.0711  141.4562  168.7871 C.ar    1  UNL1       -0.0008
     28 C         143.5194  142.2006  170.0098 C.ar    1  UNL1        0.0204
     29 C         142.6479  143.2703  170.5983 C.ar    1  UNL1        0.0989
     30 N         141.3281  143.5956  169.9640 N.ar    1  UNL1       -0.2426
     31 C         140.8798  142.8513  168.7413 C.ar    1  UNL1        0.0949
@<TRIPOS>BOND
     1    13    14    1
     2    14    15    1
     3    14    16   am
     4    16    17    2
     5    16     7    1
     6     7     8   ar
     7     8     9   ar
     8     9    10   ar
     9    10    11   ar
    10    11     1    1
    11     1     2   ar
    12     2     3   ar
    13     3     4   ar
    14     4     5   ar
    15     5     6   ar
    16     6    18    1
    17    18    19    1
    18    19    20    1
    19    20    21   ar
    20    21    22   ar
    21    22    23   ar
    22    23    24   ar
    23    24    25   ar
    24    19    26    1
    25    26    27   ar
    26    27    28   ar
    27    28    29   ar
    28    29    30   ar
    29    30    31   ar
    30    11    12   ar
    31    12     7   ar
    32     6     1   ar
    33    25    20   ar
    34    31    26   ar
@<TRIPOS>MOLECULE
*****
 31 34 0 0 0
SMALL
GASTEIGER

@<TRIPOS>ATOM
      1 C         141.6745  143.3743  164.4046 C.ar    1  UNL1       -0.0039
      2 C         142.1696  144.7087  163.9312 C.ar    1  UNL1       -0.0003
      3 C         143.5787  145.1324  164.2226 C.ar    1  UNL1       -0.0000
      4 C         144.4928  144.2215  164.9874 C.ar    1  UNL1       -0.0003
      5 C         143.9976  142.8870  165.4608 C.ar    1  UNL1       -0.0042
      6 C         142.5885  142.4635  165.1694 C.ar    1  UNL1       -0.0215
      7 C         138.5727  141.6041  162.6738 C.ar    1  UNL1        0.0536
      8 C         137.4471  142.1034  163.5304 C.ar    1  UNL1        0.0045
      9 C         137.7307  143.0262  164.6784 C.ar    1  UNL1        0.0001
     10 C         139.1397  143.4499  164.9698 C.ar    1  UNL1       -0.0000
     11 C         140.2653  142.9507  164.1132 C.ar    1  UNL1       -0.0002
     12 C         139.9818  142.0278  162.9652 C.ar    1  UNL1        0.0045
     13 C         138.0853  140.2673  158.9691 C.3     1  UNL1        0.1152
     14 N         138.3688  141.1902  160.1171 N.am    1  UNL1       -0.2726
     15 C         138.7318  142.6221  159.8563 C.3     1  UNL1        0.1152
     16 C         138.2892  140.6813  161.5258 C.2     1  UNL1        0.2491
     17 O         137.9262  139.2494  161.7865 O.2     1  UNL1       -0.2699
     18 C         142.0933  141.1290  165.6429 C.3     1  UNL1        0.0352
     19 C         141.3169  141.0280  166.9223 C.3     1  UNL1        0.0520
     20 C         141.7892  141.7562  168.1457 C.ar    1  UNL1        0.0011
     21 C         143.1155  141.4140  168.7570 C.ar    1  UNL1       -0.0008
     22 C         143.5877  142.1422  169.9804 C.ar    1  UNL1        0.0204
     23 C         142.7336  143.2128  170.5924 C.ar    1  UNL1        0.0989
     24 N         141.4073  143.5550  169.9811 N.ar    1  UNL1       -0.2426
     25 C         140.9351  142.8267  168.7576 C.ar    1  UNL1        0.0949
     26 C         140.0682  140.1986  166.9784 C.ar    1  UNL1        0.0011
     27 C         139.5012  139.6108  165.7203 C.ar    1  UNL1       -0.0008
     28 C         138.2525  138.7815  165.7764 C.ar    1  UNL1        0.0204
     29 C         137.5709  138.5400  167.0906 C.ar    1  UNL1        0.0989
     30 N         138.1381  139.1279  168.3487 N.ar    1  UNL1       -0.2426
     31 C         139.3867  139.9572  168.2926 C.ar    1  UNL1        0.0949
@<TRIPOS>BOND
     1    13    14    1
     2    14    15    1
     3    14    16   am
     4    16    17    2
     5    16     7    1
     6     7     8   ar
     7     8     9   ar
     8     9    10   ar
     9    10    11   ar
    10    11     1    1
    11     1     2   ar
    12     2     3   ar
    13     3     4   ar
    14     4     5   ar
    15     5     6   ar
    16     6    18    1
    17    18    19    1
    18    19    20    1
    19    20    21   ar
    20    21    22   ar
    21    22    23   ar
    22    23    24   ar
    23    24    25   ar
    24    19    26    1
    25    26    27   ar
    26    27    28   ar
    27    28    29   ar
    28    29    30   ar
    29    30    31   ar
    30    11    12   ar
    31    12     7   ar
    32     6     1   ar
    33    25    20   ar
    34    31    26   ar
@<TRIPOS>MOLECULE
*****
 31 34 0 0 0
SMALL
GASTEIGER

@<TRIPOS>ATOM
      1 C         141.3748  140.3973  168.0044 C.ar    1  UNL1       -0.0039
      2 C         142.1758  139.5703  168.9658 C.ar    1  UNL1       -0.0003
      3 C         143.1155  140.2369  169.9265 C.ar    1  UNL1       -0.0000
      4 C         143.2541  141.7305  169.9256 C.ar    1  UNL1       -0.0003
      5 C         142.4531  142.5575  168.9641 C.ar    1  UNL1       -0.0042
      6 C         141.5134  141.8909  168.0035 C.ar    1  UNL1       -0.0215
      7 C         140.0190  138.4832  164.8032 C.ar    1  UNL1        0.0536
      8 C         138.5559  138.3977  165.1226 C.ar    1  UNL1        0.0045
      9 C         138.0325  138.9787  166.4026 C.ar    1  UNL1        0.0001
     10 C         138.9721  139.6452  167.3632 C.ar    1  UNL1       -0.0000
     11 C         140.4351  139.7307  167.0438 C.ar    1  UNL1       -0.0002
     12 C         140.9586  139.1497  165.7638 C.ar    1  UNL1        0.0045
     13 C         141.0432  138.1370  160.9847 C.3     1  UNL1        0.1152
     14 N         140.5198  138.7180  162.2647 N.am    1  UNL1       -0.2726
     15 C         139.9736  140.1149  162.2861 C.3     1  UNL1        0.1152
     16 C         140.5425  137.9022  163.5232 C.2     1  UNL1        0.2491
     17 O         141.0886  136.5053  163.5017 O.2     1  UNL1       -0.2699
     18 C         140.7124  142.7179  167.0420 C.3     1  UNL1        0.0352
     19 C         141.0506  142.7069  165.5807 C.3     1  UNL1        0.0520
     20 C         139.9701  142.9043  164.5593 C.ar    1  UNL1        0.0011
     21 C         138.6071  142.3209  164.7870 C.ar    1  UNL1       -0.0008
     22 C         137.5266  142.5182  163.7655 C.ar    1  UNL1        0.0204
     23 C         137.8090  143.2991  162.5162 C.ar    1  UNL1        0.0989
     24 N         139.1720  143.8825  162.2885 N.ar    1  UNL1       -0.2426
     25 C         140.2526  143.6851  163.3101 C.ar    1  UNL1        0.0949
     26 C         142.4695  142.4986  165.1409 C.ar    1  UNL1        0.0011
     27 C         142.8630  141.2233  164.4563 C.ar    1  UNL1       -0.0008
     28 C         144.2819  141.0149  164.0165 C.ar    1  UNL1        0.0204
     29 C         145.3073  142.0819  164.2613 C.ar    1  UNL1        0.0989
     30 N         144.9138  143.3573  164.9459 N.ar    1  UNL1       -0.2426
     31 C         143.4950  143.5656  165.3857 C.ar    1  UNL1        0.0949
@<TRIPOS>BOND
     1    13    14    1
     2    14    15    1
     3    14    16   am
     4    16    17    2
     5    16     7    1
     6     7     8   ar
     7     8     9   ar
     8     9    10   ar
     9    10    11   ar
    10    11     1    1
    11     1     2   ar
    12     2     3   ar
    13     3     4   ar
    14     4     5   ar
    15     5     6   ar
    16     6    18    1
    17    18    19    1
    18    19    20    1
    19    20    21   ar
    20    21    22   ar
    21    22    23   ar
    22    23    24   ar
    23    24    25   ar
    24    19    26    1
    25    26    27   ar
    26    27    28   ar
    27    28    29   ar
    28    29    30   ar
    29    30    31   ar
    30    11    12   ar
    31    12     7   ar
    32     6     1   ar
    33    25    20   ar
    34    31    26   ar
@<TRIPOS>MOLECULE
*****
 31 34 0 0 0
SMALL
GASTEIGER

@<TRIPOS>ATOM
      1 C         142.7724  142.8526  165.1012 C.ar    1  UNL1       -0.0039
      2 C         144.0119  143.6295  164.7699 C.ar    1  UNL1       -0.0003
      3 C         143.9026  144.9612  164.0880 C.ar    1  UNL1       -0.0000
      4 C         142.5537  145.5158  163.7375 C.ar    1  UNL1       -0.0003
      5 C         141.3141  144.7387  164.0688 C.ar    1  UNL1       -0.0042
      6 C         141.4234  143.4072  164.7506 C.ar    1  UNL1       -0.0215
      7 C         142.6056  140.0519  167.9080 C.ar    1  UNL1        0.0536
      8 C         143.1003  138.8578  167.1468 C.ar    1  UNL1        0.0045
      9 C         143.4856  138.9954  165.7037 C.ar    1  UNL1        0.0001
     10 C         143.3763  140.3269  165.0218 C.ar    1  UNL1       -0.0000
     11 C         142.8817  141.5209  165.7830 C.ar    1  UNL1       -0.0002
     12 C         142.4963  141.3834  167.2262 C.ar    1  UNL1        0.0045
     13 C         140.3895  139.8242  171.1924 C.3     1  UNL1        0.1152
     14 N         140.7748  139.9617  169.7492 N.am    1  UNL1       -0.2726
     15 C         139.7147  140.1466  168.7042 C.3     1  UNL1        0.1152
     16 C         142.2202  139.9144  169.3511 C.2     1  UNL1        0.2491
     17 O         143.2803  139.7295  170.3962 O.2     1  UNL1       -0.2699
     18 C         140.1839  142.6301  165.0820 C.3     1  UNL1        0.0352
     19 C         139.6644  141.6015  164.1217 C.3     1  UNL1        0.0520
     20 C         139.4924  141.9477  162.6724 C.ar    1  UNL1        0.0011
     21 C         140.5938  141.6576  161.6962 C.ar    1  UNL1       -0.0008
     22 C         140.4218  142.0038  160.2469 C.ar    1  UNL1        0.0204
     23 C         139.1484  142.6401  159.7737 C.ar    1  UNL1        0.0989
     24 N         138.0471  142.9301  160.7499 N.ar    1  UNL1       -0.2426
     25 C         138.2191  142.5839  162.1993 C.ar    1  UNL1        0.0949
     26 C         139.3169  140.2267  164.6108 C.ar    1  UNL1        0.0011
     27 C         140.1472  139.0497  164.1924 C.ar    1  UNL1       -0.0008
     28 C         139.7997  137.6748  164.6815 C.ar    1  UNL1        0.0204
     29 C         138.6219  137.4771  165.5890 C.ar    1  UNL1        0.0989
     30 N         137.7915  138.6542  166.0074 N.ar    1  UNL1       -0.2426
     31 C         138.1390  140.0290  165.5183 C.ar    1  UNL1        0.0949
@<TRIPOS>BOND
     1    13    14    1
     2    14    15    1
     3    14    16   am
     4    16    17    2
     5    16     7    1
     6     7     8   ar
     7     8     9   ar
     8     9    10   ar
     9    10    11   ar
    10    11     1    1
    11     1     2   ar
    12     2     3   ar
    13     3     4   ar
    14     4     5   ar
    15     5     6   ar
    16     6    18    1
    17    18    19    1
    18    19    20    1
    19    20    21   ar
    20    21    22   ar
    21    22    23   ar
    22    23    24   ar
    23    24    25   ar
    24    19    26    1
    25    26    27   ar
    26    27    28   ar
    27    28    29   ar
    28    29    30   ar
    29    30    31   ar
    30    11    12   ar
    31    12     7   ar
    32     6     1   ar
    33    25    20   ar
    34    31    26   ar
@<TRIPOS>MOLECULE
*****
 31 34 0 0 0
SMALL
GASTEIGER

@<TRIPOS>ATOM
      1 C         142.7275  142.8852  165.0982 C.ar    1  UNL1       -0.0039
      2 C         143.9640  143.6726  164.7804 C.ar    1  UNL1       -0.0003
      3 C         143.8512  145.0017  164.0941 C.ar    1  UNL1       -0.0000
      4 C         142.5018  145.5432  163.7255 C.ar    1  UNL1       -0.0003
      5 C         141.2652  144.7558  164.0433 C.ar    1  UNL1       -0.0042
      6 C         141.3781  143.4268  164.7296 C.ar    1  UNL1       -0.0215
      7 C         142.5827  140.0969  167.9185 C.ar    1  UNL1        0.0536
      8 C         143.0659  138.8983  167.1572 C.ar    1  UNL1        0.0045
      9 C         143.4363  139.0286  165.7095 C.ar    1  UNL1        0.0001
     10 C         143.3235  140.3576  165.0232 C.ar    1  UNL1       -0.0000
     11 C         142.8403  141.5562  165.7845 C.ar    1  UNL1       -0.0002
     12 C         142.4699  141.4259  167.2322 C.ar    1  UNL1        0.0045
     13 C         140.3995  139.8655  171.2246 C.3     1  UNL1        0.1152
     14 N         140.7699  139.9958  169.7769 N.am    1  UNL1       -0.2726
     15 C         139.6979  140.1554  168.7399 C.3     1  UNL1        0.1152
     16 C         142.2123  139.9666  169.3662 C.2     1  UNL1        0.2491
     17 O         143.2842  139.8071  170.4032 O.2     1  UNL1       -0.2699
     18 C         140.1415  142.6394  165.0474 C.3     1  UNL1        0.0352
     19 C         139.6425  141.6050  164.0825 C.3     1  UNL1        0.0520
     20 C         139.3076  140.2259  164.5682 C.ar    1  UNL1        0.0011
     21 C         140.1284  139.0531  164.1202 C.ar    1  UNL1       -0.0008
     22 C         139.7935  137.6740  164.6059 C.ar    1  UNL1        0.0204
     23 C         138.6377  137.4677  165.5396 C.ar    1  UNL1        0.0989
     24 N         137.8169  138.6405  165.9876 N.ar    1  UNL1       -0.2426
     25 C         138.1519  140.0197  165.5018 C.ar    1  UNL1        0.0949
     26 C         139.4783  141.9498  162.6319 C.ar    1  UNL1        0.0011
     27 C         140.5957  141.6848  161.6669 C.ar    1  UNL1       -0.0008
     28 C         140.4316  142.0296  160.2163 C.ar    1  UNL1        0.0204
     29 C         139.1500  142.6393  159.7307 C.ar    1  UNL1        0.0989
     30 N         138.0326  142.9043  160.6957 N.ar    1  UNL1       -0.2426
     31 C         138.1968  142.5595  162.1463 C.ar    1  UNL1        0.0949
@<TRIPOS>BOND
     1    13    14    1
     2    14    15    1
     3    14    16   am
     4    16    17    2
     5    16     7    1
     6     7     8   ar
     7     8     9   ar
     8     9    10   ar
     9    10    11   ar
    10    11     1    1
    11     1     2   ar
    12     2     3   ar
    13     3     4   ar
    14     4     5   ar
    15     5     6   ar
    16     6    18    1
    17    18    19    1
    18    19    20    1
    19    20    21   ar
    20    21    22   ar
    21    22    23   ar
    22    23    24   ar
    23    24    25   ar
    24    19    26    1
    25    26    27   ar
    26    27    28   ar
    27    28    29   ar
    28    29    30   ar
    29    30    31   ar
    30    11    12   ar
    31    12     7   ar
    32     6     1   ar
    33    25    20   ar
    34    31    26   ar
@<TRIPOS>MOLECULE
*****
 31 34 0 0 0
SMALL
GASTEIGER

@<TRIPOS>ATOM
      1 C         140.8127  141.7850  167.9880 C.ar    1  UNL1       -0.0039
      2 C         140.2930  142.7684  168.9943 C.ar    1  UNL1       -0.0003
      3 C         141.2278  143.3851  169.9923 C.ar    1  UNL1       -0.0000
      4 C         142.6823  143.0183  169.9839 C.ar    1  UNL1       -0.0003
      5 C         143.2019  142.0349  168.9774 C.ar    1  UNL1       -0.0042
      6 C         142.2671  141.4182  167.9795 C.ar    1  UNL1       -0.0215
      7 C         138.5720  141.3032  164.7480 C.ar    1  UNL1        0.0536
      8 C         138.0084  139.9350  164.9940 C.ar    1  UNL1        0.0045
      9 C         138.3796  139.1835  166.2380 C.ar    1  UNL1        0.0001
     10 C         139.3143  139.8002  167.2360 C.ar    1  UNL1       -0.0000
     11 C         139.8779  141.1683  166.9900 C.ar    1  UNL1       -0.0002
     12 C         139.5067  141.9198  165.7460 C.ar    1  UNL1        0.0045
     13 C         138.4439  142.4290  160.9446 C.3     1  UNL1        0.1152
     14 N         138.8151  141.6775  162.1886 N.am    1  UNL1       -0.2726
     15 C         139.8006  140.5488  162.1171 C.3     1  UNL1        0.1152
     16 C         138.2009  142.0546  163.5040 C.2     1  UNL1        0.2491
     17 O         137.2155  143.1833  163.5755 O.2     1  UNL1       -0.2699
     18 C         142.7868  140.4348  166.9731 C.3     1  UNL1        0.0352
     19 C         142.8374  140.8044  165.5202 C.3     1  UNL1        0.0520
     20 C         143.1074  142.2235  165.1163 C.ar    1  UNL1        0.0011
     21 C         142.1047  142.9714  164.2885 C.ar    1  UNL1       -0.0008
     22 C         142.3747  144.3905  163.8846 C.ar    1  UNL1        0.0204
     23 C         143.6474  145.0618  164.3086 C.ar    1  UNL1        0.0989
     24 N         144.6501  144.3139  165.1364 N.ar    1  UNL1       -0.2426
     25 C         144.3801  142.8947  165.5403 C.ar    1  UNL1        0.0949
     26 C         142.6180  139.7548  164.4712 C.ar    1  UNL1        0.0011
     27 C         141.6591  138.6297  164.7250 C.ar    1  UNL1       -0.0008
     28 C         141.4397  137.5801  163.6760 C.ar    1  UNL1        0.0204
     29 C         142.1793  137.6557  162.3732 C.ar    1  UNL1        0.0989
     30 N         143.1383  138.7809  162.1195 N.ar    1  UNL1       -0.2426
     31 C         143.3577  139.8304  163.1684 C.ar    1  UNL1        0.0949
@<TRIPOS>BOND
     1    13    14    1
     2    14    15    1
     3    14    16   am
     4    16    17    2
     5    16     7    1
     6     7     8   ar
     7     8     9   ar
     8     9    10   ar
     9    10    11   ar
    10    11     1    1
    11     1     2   ar
    12     2     3   ar
    13     3     4   ar
    14     4     5   ar
    15     5     6   ar
    16     6    18    1
    17    18    19    1
    18    19    20    1
    19    20    21   ar
    20    21    22   ar
    21    22    23   ar
    22    23    24   ar
    23    24    25   ar
    24    19    26    1
    25    26    27   ar
    26    27    28   ar
    27    28    29   ar
    28    29    30   ar
    29    30    31   ar
    30    11    12   ar
    31    12     7   ar
    32     6     1   ar
    33    25    20   ar
    34    31    26   ar
@<TRIPOS>MOLECULE
*****
 31 34 0 0 0
SMALL
GASTEIGER

@<TRIPOS>ATOM
      1 C         143.2996  140.8059  164.9619 C.ar    1  UNL1       -0.0039
      2 C         144.4364  139.9396  164.5068 C.ar    1  UNL1       -0.0003
      3 C         144.7333  138.6548  165.2220 C.ar    1  UNL1       -0.0000
      4 C         143.8932  138.2365  166.3922 C.ar    1  UNL1       -0.0003
      5 C         142.7564  139.1029  166.8472 C.ar    1  UNL1       -0.0042
      6 C         142.4596  140.3875  166.1321 C.ar    1  UNL1       -0.0215
      7 C         141.9575  143.3545  162.2317 C.ar    1  UNL1        0.0536
      8 C         142.4091  144.6599  162.8164 C.ar    1  UNL1        0.0045
      9 C         143.1575  144.6807  164.1161 C.ar    1  UNL1        0.0001
     10 C         143.4544  143.3961  164.8313 C.ar    1  UNL1       -0.0000
     11 C         143.0028  142.0906  164.2467 C.ar    1  UNL1       -0.0002
     12 C         142.2543  142.0698  162.9469 C.ar    1  UNL1        0.0045
     13 C         141.2030  143.1271  158.3422 C.3     1  UNL1        0.1152
     14 N         141.9514  143.1479  159.6419 N.am    1  UNL1       -0.2726
     15 C         143.4424  142.9829  159.6516 C.3     1  UNL1        0.1152
     16 C         141.2090  143.3337  160.9320 C.2     1  UNL1        0.2491
     17 O         139.7182  143.4987  160.9222 O.2     1  UNL1       -0.2699
     18 C         141.3227  141.2539  166.5871 C.3     1  UNL1        0.0352
     19 C         139.9582  141.0753  165.9903 C.3     1  UNL1        0.0520
     20 C         139.2384  139.7681  166.1423 C.ar    1  UNL1        0.0011
     21 C         139.4489  138.6748  165.1371 C.ar    1  UNL1       -0.0008
     22 C         138.7291  137.3675  165.2890 C.ar    1  UNL1        0.0204
     23 C         137.7989  137.1536  166.4462 C.ar    1  UNL1        0.0989
     24 N         137.5885  138.2469  167.4514 N.ar    1  UNL1       -0.2426
     25 C         138.3083  139.5542  167.2994 C.ar    1  UNL1        0.0949
     26 C         139.3133  142.2039  165.2416 C.ar    1  UNL1        0.0011
     27 C         139.7571  143.6159  165.4853 C.ar    1  UNL1       -0.0008
     28 C         139.1123  144.7445  164.7366 C.ar    1  UNL1        0.0204
     29 C         138.0237  144.4611  163.7443 C.ar    1  UNL1        0.0989
     30 N         137.5800  143.0490  163.5007 N.ar    1  UNL1       -0.2426
     31 C         138.2248  141.9205  164.2493 C.ar    1  UNL1        0.0949
@<TRIPOS>BOND
     1    13    14    1
     2    14    15    1
     3    14    16   am
     4    16    17    2
     5    16     7    1
     6     7     8   ar
     7     8     9   ar
     8     9    10   ar
     9    10    11   ar
    10    11     1    1
    11     1     2   ar
    12     2     3   ar
    13     3     4   ar
    14     4     5   ar
    15     5     6   ar
    16     6    18    1
    17    18    19    1
    18    19    20    1
    19    20    21   ar
    20    21    22   ar
    21    22    23   ar
    22    23    24   ar
    23    24    25   ar
    24    19    26    1
    25    26    27   ar
    26    27    28   ar
    27    28    29   ar
    28    29    30   ar
    29    30    31   ar
    30    11    12   ar
    31    12     7   ar
    32     6     1   ar
    33    25    20   ar
    34    31    26   ar
@<TRIPOS>MOLECULE
*****
 31 34 0 0 0
SMALL
GASTEIGER

@<TRIPOS>ATOM
      1 C         139.1387  141.8713  164.6094 C.ar    1  UNL1       -0.0039
      2 C         137.7812  142.3329  164.1690 C.ar    1  UNL1       -0.0003
      3 C         137.3498  143.7464  164.4258 C.ar    1  UNL1       -0.0000
      4 C         138.2760  144.6983  165.1231 C.ar    1  UNL1       -0.0003
      5 C         139.6336  144.2366  165.5635 C.ar    1  UNL1       -0.0042
      6 C         140.0649  142.8231  165.3067 C.ar    1  UNL1       -0.0215
      7 C         140.9191  138.7367  162.9497 C.ar    1  UNL1        0.0536
      8 C         140.4329  137.6309  163.8389 C.ar    1  UNL1        0.0045
      9 C         139.5153  137.9385  164.9849 C.ar    1  UNL1        0.0001
     10 C         139.0839  139.3519  165.2418 C.ar    1  UNL1       -0.0000
     11 C         139.5701  140.4577  164.3526 C.ar    1  UNL1       -0.0002
     12 C         140.4877  140.1501  163.2066 C.ar    1  UNL1        0.0045
     13 C         142.2122  138.0506  159.2609 C.3     1  UNL1        0.1152
     14 N         141.2946  138.3582  160.4069 N.am    1  UNL1       -0.2726
     15 C         139.8347  138.5949  160.1562 C.3     1  UNL1        0.1152
     16 C         141.8367  138.4291  161.8037 C.2     1  UNL1        0.2491
     17 O         143.2965  138.1924  162.0544 O.2     1  UNL1       -0.2699
     18 C         141.4225  142.3615  165.7471 C.3     1  UNL1        0.0352
     19 C         141.5619  141.4954  166.9638 C.3     1  UNL1        0.0520
     20 C         142.3974  140.2510  166.9069 C.ar    1  UNL1        0.0011
     21 C         143.0286  139.8299  165.6130 C.ar    1  UNL1       -0.0008
     22 C         143.8641  138.5855  165.5561 C.ar    1  UNL1        0.0204
     23 C         144.0686  137.7621  166.7932 C.ar    1  UNL1        0.0989
     24 N         143.4374  138.1832  168.0871 N.ar    1  UNL1       -0.2426
     25 C         142.6018  139.4277  168.1440 C.ar    1  UNL1        0.0949
     26 C         140.8657  141.8738  168.2375 C.ar    1  UNL1        0.0011
     27 C         141.1696  143.1863  168.8970 C.ar    1  UNL1       -0.0008
     28 C         140.4734  143.5647  170.1707 C.ar    1  UNL1        0.0204
     29 C         139.4734  142.6305  170.7849 C.ar    1  UNL1        0.0989
     30 N         139.1695  141.3180  170.1253 N.ar    1  UNL1       -0.2426
     31 C         139.8657  140.9396  168.8517 C.ar    1  UNL1        0.0949
@<TRIPOS>BOND
     1    13    14    1
     2    14    15    1
     3    14    16   am
     4    16    17    2
     5    16     7    1
     6     7     8   ar
     7     8     9   ar
     8     9    10   ar
     9    10    11   ar
    10    11     1    1
    11     1     2   ar
    12     2     3   ar
    13     3     4   ar
    14     4     5   ar
    15     5     6   ar
    16     6    18    1
    17    18    19    1
    18    19    20    1
    19    20    21   ar
    20    21    22   ar
    21    22    23   ar
    22    23    24   ar
    23    24    25   ar
    24    19    26    1
    25    26    27   ar
    26    27    28   ar
    27    28    29   ar
    28    29    30   ar
    29    30    31   ar
    30    11    12   ar
    31    12     7   ar
    32     6     1   ar
    33    25    20   ar
    34    31    26   ar
@<TRIPOS>MOLECULE
*****
 31 34 0 0 0
SMALL
GASTEIGER

@<TRIPOS>ATOM
      1 C         139.1302  141.8296  164.5924 C.ar    1  UNL1       -0.0039
      2 C         137.7705  142.2828  164.1500 C.ar    1  UNL1       -0.0003
      3 C         137.3304  143.6940  164.4052 C.ar    1  UNL1       -0.0000
      4 C         138.2501  144.6519  165.1027 C.ar    1  UNL1       -0.0003
      5 C         139.6099  144.1986  165.5451 C.ar    1  UNL1       -0.0042
      6 C         140.0499  142.7875  165.2900 C.ar    1  UNL1       -0.0215
      7 C         140.9347  138.7049  162.9401 C.ar    1  UNL1        0.0536
      8 C         140.4504  137.5963  163.8269 C.ar    1  UNL1        0.0045
      9 C         139.5260  137.8987  164.9689 C.ar    1  UNL1        0.0001
     10 C         139.0860  139.3098  165.2240 C.ar    1  UNL1       -0.0000
     11 C         139.5702  140.4184  164.3373 C.ar    1  UNL1       -0.0002
     12 C         140.4946  140.1159  163.1953 C.ar    1  UNL1        0.0045
     13 C         142.2502  138.0393  159.2555 C.3     1  UNL1        0.1152
     14 N         141.3258  138.3418  160.3975 N.am    1  UNL1       -0.2726
     15 C         139.8682  138.5837  160.1387 C.3     1  UNL1        0.1152
     16 C         141.8590  138.4024  161.7982 C.2     1  UNL1        0.2491
     17 O         143.3166  138.1605  162.0569 O.2     1  UNL1       -0.2699
     18 C         141.4097  142.3342  165.7324 C.3     1  UNL1        0.0352
     19 C         141.5536  141.4778  166.9554 C.3     1  UNL1        0.0520
     20 C         140.8590  141.8641  168.2275 C.ar    1  UNL1        0.0011
     21 C         141.1571  143.1846  168.8736 C.ar    1  UNL1       -0.0008
     22 C         140.4625  143.5709  170.1457 C.ar    1  UNL1        0.0204
     23 C         139.4698  142.6367  170.7718 C.ar    1  UNL1        0.0989
     24 N         139.1718  141.3162  170.1257 N.ar    1  UNL1       -0.2426
     25 C         139.8664  140.9299  168.8536 C.ar    1  UNL1        0.0949
     26 C         142.3922  140.2350  166.9063 C.ar    1  UNL1        0.0011
     27 C         143.0228  139.8063  165.6146 C.ar    1  UNL1       -0.0008
     28 C         143.8614  138.5635  165.5655 C.ar    1  UNL1        0.0204
     29 C         144.0692  137.7494  166.8081 C.ar    1  UNL1        0.0989
     30 N         143.4385  138.1781  168.0999 N.ar    1  UNL1       -0.2426
     31 C         142.6000  139.4209  168.1489 C.ar    1  UNL1        0.0949
@<TRIPOS>BOND
     1    13    14    1
     2    14    15    1
     3    14    16   am
     4    16    17    2
     5    16     7    1
     6     7     8   ar
     7     8     9   ar
     8     9    10   ar
     9    10    11   ar
    10    11     1    1
    11     1     2   ar
    12     2     3   ar
    13     3     4   ar
    14     4     5   ar
    15     5     6   ar
    16     6    18    1
    17    18    19    1
    18    19    20    1
    19    20    21   ar
    20    21    22   ar
    21    22    23   ar
    22    23    24   ar
    23    24    25   ar
    24    19    26    1
    25    26    27   ar
    26    27    28   ar
    27    28    29   ar
    28    29    30   ar
    29    30    31   ar
    30    11    12   ar
    31    12     7   ar
    32     6     1   ar
    33    25    20   ar
    34    31    26   ar
