@<TRIPOS>MOLECULE
*****
 37 41 0 0 0
SMALL
GASTEIGER

@<TRIPOS>ATOM
      1 C         142.2426  139.2014  158.8021 C.3     1  UNL1        0.0806
      2 C         142.1492  139.0611  157.3116 C.3     1  UNL1        0.0108
      3 C         142.4156  137.7340  156.6651 C.3     1  UNL1        0.0165
      4 C         142.7754  136.5473  157.5091 C.3     1  UNL1        0.0580
      5 C         142.8688  136.6877  158.9995 C.3     1  UNL1        0.0208
      6 C         142.6024  138.0147  159.6461 C.3     1  UNL1        0.0323
      7 C         142.6959  138.1550  161.1366 C.ar    1  UNL1       -0.0220
      8 C         141.5272  137.7822  161.9998 C.ar    1  UNL1       -0.0038
      9 C         141.6207  137.9225  163.4902 C.ar    1  UNL1        0.0064
     10 C         142.8828  138.4357  164.1175 C.ar    1  UNL1        0.0345
     11 BR        142.9763  138.5760  165.6081 Br      1  UNL1       -0.0490
     12 C         144.0515  138.8085  163.2544 C.ar    1  UNL1        0.0064
     13 C         143.9581  138.6682  161.7639 C.ar    1  UNL1       -0.0038
     14 N         143.0418  135.2203  156.8626 N.3     1  UNL1       -0.2697
     15 C         142.6870  135.0035  155.4213 C.3     1  UNL1        0.1046
     16 C         142.9534  133.6764  154.7748 C.3     1  UNL1        0.1595
     17 O         143.5746  132.5662  155.5695 O.3     1  UNL1       -0.3508
     18 C         143.9294  132.7830  157.0107 C.3     1  UNL1        0.1595
     19 C         143.6630  134.1100  157.6572 C.3     1  UNL1        0.1046
     20 O         140.6552  140.7888  160.1099 O.2     1  UNL1       -0.2751
     21 C         141.9762  140.5284  159.4487 C.2     1  UNL1        0.2228
     22 N         143.0308  141.5950  159.4340 N.am    1  UNL1       -0.2974
     23 H         143.8978  141.4241  159.0000 H       1  UNL1        0.1500
     24 C         142.7644  142.9221  160.0805 C.3     1  UNL1        0.1363
     25 C         143.2616  143.1929  161.4696 C.ar    1  UNL1        0.0013
     26 C         142.7721  144.3957  162.2202 C.ar    1  UNL1       -0.0014
     27 C         143.2693  144.6665  163.6092 C.ar    1  UNL1        0.0111
     28 C         144.2560  143.7343  164.2477 C.ar    1  UNL1        0.0577
     29 CL        144.7532  144.0052  165.6368 Cl      1  UNL1       -0.0822
     30 C         144.7455  142.5315  163.4970 C.ar    1  UNL1        0.0111
     31 C         144.2483  142.2608  162.1080 C.ar    1  UNL1       -0.0014
     32 C         142.0008  143.9783  159.3380 C.ar    1  UNL1        0.1001
     33 C         140.5493  144.2062  159.6398 C.ar    1  UNL1        0.1155
     34 N         139.7857  145.2625  158.8972 N.ar    1  UNL1       -0.2394
     35 C         140.4737  146.0908  157.8529 C.ar    1  UNL1        0.1195
     36 C         141.9252  145.8628  157.5511 C.ar    1  UNL1        0.1192
     37 N         142.6888  144.8066  158.2936 N.ar    1  UNL1       -0.2430
@<TRIPOS>BOND
     1    20    21    2
     2    21    22   am
     3    22    24    1
     4    24    25    1
     5    25    26   ar
     6    26    27   ar
     7    27    28   ar
     8    28    29    1
     9    28    30   ar
    10    30    31   ar
    11    24    32    1
    12    32    33   ar
    13    33    34   ar
    14    34    35   ar
    15    35    36   ar
    16    36    37   ar
    17     1    21    1
    18     1     2    1
    19     2     3    1
    20     3     4    1
    21     4    14    1
    22    14    15    1
    23    15    16    1
    24    16    17    1
    25    17    18    1
    26    18    19    1
    27     4     5    1
    28     5     6    1
    29     6     7    1
    30     7     8   ar
    31     8     9   ar
    32     9    10   ar
    33    10    11    1
    34    10    12   ar
    35    12    13   ar
    36    31    25   ar
    37    37    32   ar
    38     6     1    1
    39    13     7   ar
    40    19    14    1
    41    22    23    1
@<TRIPOS>MOLECULE
*****
 37 41 0 0 0
SMALL
GASTEIGER

@<TRIPOS>ATOM
      1 C         141.0065  139.4517  160.3958 C.3     1  UNL1        0.0806
      2 C         140.6356  139.5003  158.9431 C.3     1  UNL1        0.0108
      3 C         141.2952  138.5696  157.9691 C.3     1  UNL1        0.0165
      4 C         142.3257  137.5902  158.4477 C.3     1  UNL1        0.0580
      5 C         142.6966  137.5417  159.9003 C.3     1  UNL1        0.0208
      6 C         142.0370  138.4724  160.8743 C.3     1  UNL1        0.0323
      7 C         142.4080  138.4238  162.3270 C.ar    1  UNL1       -0.0220
      8 C         143.6445  139.1227  162.8091 C.ar    1  UNL1       -0.0038
      9 C         144.0154  139.0740  164.2616 C.ar    1  UNL1        0.0064
     10 C         143.1498  138.3265  165.2321 C.ar    1  UNL1        0.0345
     11 BR        143.5207  138.2779  166.6848 Br      1  UNL1       -0.0490
     12 C         141.9132  137.6276  164.7500 C.ar    1  UNL1        0.0064
     13 C         141.5423  137.6762  163.2975 C.ar    1  UNL1       -0.0038
     14 N         142.9853  136.6595  157.4737 N.3     1  UNL1       -0.2697
     15 C         143.1213  135.2024  157.8031 C.3     1  UNL1        0.1046
     16 C         143.7809  134.2717  156.8291 C.3     1  UNL1        0.1595
     17 O         144.3044  134.7981  155.5257 O.3     1  UNL1       -0.3508
     18 C         144.1684  136.2551  155.1963 C.3     1  UNL1        0.1595
     19 C         143.5088  137.1858  156.1703 C.3     1  UNL1        0.1046
     20 O         138.8549  140.5366  161.3670 O.2     1  UNL1       -0.2751
     21 C         140.3470  140.3824  161.3698 C.2     1  UNL1        0.2228
     22 N         141.1794  141.1588  162.3466 N.am    1  UNL1       -0.2974
     23 H         142.1587  141.0576  162.3484 H       1  UNL1        0.1500
     24 C         140.5198  142.0896  163.3206 C.3     1  UNL1        0.1363
     25 C         140.2793  141.6486  164.7340 C.ar    1  UNL1        0.0013
     26 C         140.7693  142.4892  165.8756 C.ar    1  UNL1       -0.0014
     27 C         140.5288  142.0483  167.2890 C.ar    1  UNL1        0.0111
     28 C         139.7982  140.7667  167.5608 C.ar    1  UNL1        0.0577
     29 CL        139.5577  140.3258  168.9742 Cl      1  UNL1       -0.0822
     30 C         139.3082  139.9261  166.4192 C.ar    1  UNL1        0.0111
     31 C         139.5487  140.3671  165.0058 C.ar    1  UNL1       -0.0014
     32 C         140.1008  143.4611  162.8812 C.ar    1  UNL1        0.1001
     33 C         138.6444  143.7906  162.7383 C.ar    1  UNL1        0.1155
     34 N         138.2254  145.1623  162.2989 N.ar    1  UNL1       -0.2394
     35 C         139.2627  146.2044  162.0024 C.ar    1  UNL1        0.1195
     36 C         140.7191  145.8749  162.1453 C.ar    1  UNL1        0.1192
     37 N         141.1381  144.5033  162.5847 N.ar    1  UNL1       -0.2430
@<TRIPOS>BOND
     1    20    21    2
     2    21    22   am
     3    22    24    1
     4    24    25    1
     5    25    26   ar
     6    26    27   ar
     7    27    28   ar
     8    28    29    1
     9    28    30   ar
    10    30    31   ar
    11    24    32    1
    12    32    33   ar
    13    33    34   ar
    14    34    35   ar
    15    35    36   ar
    16    36    37   ar
    17     1    21    1
    18     1     2    1
    19     2     3    1
    20     3     4    1
    21     4    14    1
    22    14    15    1
    23    15    16    1
    24    16    17    1
    25    17    18    1
    26    18    19    1
    27     4     5    1
    28     5     6    1
    29     6     7    1
    30     7     8   ar
    31     8     9   ar
    32     9    10   ar
    33    10    11    1
    34    10    12   ar
    35    12    13   ar
    36    31    25   ar
    37    37    32   ar
    38     6     1    1
    39    13     7   ar
    40    19    14    1
    41    22    23    1
@<TRIPOS>MOLECULE
*****
 37 41 0 0 0
SMALL
GASTEIGER

@<TRIPOS>ATOM
      1 C         142.2954  140.8294  164.3408 C.3     1  UNL1        0.0806
      2 C         142.7822  139.6865  165.1816 C.3     1  UNL1        0.0108
      3 C         142.4512  139.6368  166.6437 C.3     1  UNL1        0.0165
      4 C         141.6335  140.7301  167.2651 C.3     1  UNL1        0.0580
      5 C         141.1467  141.8730  166.4244 C.3     1  UNL1        0.0208
      6 C         141.4777  141.9226  164.9622 C.3     1  UNL1        0.0323
      7 C         140.9909  143.0655  164.1214 C.ar    1  UNL1       -0.0220
      8 C         139.5986  143.0465  163.5636 C.ar    1  UNL1       -0.0038
      9 C         139.1119  144.1894  162.7229 C.ar    1  UNL1        0.0064
     10 C         140.0174  145.3513  162.4399 C.ar    1  UNL1        0.0345
     11 BR        139.5306  146.4942  161.5992 Br      1  UNL1       -0.0490
     12 C         141.4097  145.3702  162.9977 C.ar    1  UNL1        0.0064
     13 C         141.8964  144.2274  163.8384 C.ar    1  UNL1       -0.0038
     14 N         141.3025  140.6805  168.7273 N.3     1  UNL1       -0.2697
     15 C         142.3318  141.0787  169.7432 C.3     1  UNL1        0.1046
     16 C         142.0009  141.0291  171.2054 C.3     1  UNL1        0.1595
     17 O         140.6406  140.5812  171.6517 O.3     1  UNL1       -0.3508
     18 C         139.6114  140.1830  170.6358 C.3     1  UNL1        0.1595
     19 C         139.9423  140.2327  169.1737 C.3     1  UNL1        0.1046
     20 O         144.0062  141.2650  162.4346 O.2     1  UNL1       -0.2751
     21 C         142.6264  140.8790  162.8786 C.2     1  UNL1        0.2228
     22 N         141.5775  140.5427  161.8604 N.am    1  UNL1       -0.2974
     23 H         140.6719  140.2894  162.1518 H       1  UNL1        0.1500
     24 C         141.9085  140.5923  160.3982 C.3     1  UNL1        0.1363
     25 C         141.9712  141.9120  159.6878 C.ar    1  UNL1        0.0013
     26 C         140.8022  142.8502  159.7439 C.ar    1  UNL1       -0.0014
     27 C         140.8649  144.1698  159.0335 C.ar    1  UNL1        0.0111
     28 C         142.0966  144.5512  158.2670 C.ar    1  UNL1        0.0577
     29 CL        142.1592  145.8709  157.5566 Cl      1  UNL1       -0.0822
     30 C         143.2655  143.6130  158.2108 C.ar    1  UNL1        0.0111
     31 C         143.2028  142.2934  158.9212 C.ar    1  UNL1       -0.0014
     32 C         142.1768  139.3224  159.6464 C.ar    1  UNL1        0.1001
     33 C         143.0196  138.2476  160.2664 C.ar    1  UNL1        0.1155
     34 N         143.2879  136.9776  159.5145 N.ar    1  UNL1       -0.2394
     35 C         142.7134  136.7824  158.1428 C.ar    1  UNL1        0.1195
     36 C         141.8705  137.8573  157.5228 C.ar    1  UNL1        0.1192
     37 N         141.6022  139.1272  158.2746 N.ar    1  UNL1       -0.2430
@<TRIPOS>BOND
     1    20    21    2
     2    21    22   am
     3    22    24    1
     4    24    25    1
     5    25    26   ar
     6    26    27   ar
     7    27    28   ar
     8    28    29    1
     9    28    30   ar
    10    30    31   ar
    11    24    32    1
    12    32    33   ar
    13    33    34   ar
    14    34    35   ar
    15    35    36   ar
    16    36    37   ar
    17     1    21    1
    18     1     2    1
    19     2     3    1
    20     3     4    1
    21     4    14    1
    22    14    15    1
    23    15    16    1
    24    16    17    1
    25    17    18    1
    26    18    19    1
    27     4     5    1
    28     5     6    1
    29     6     7    1
    30     7     8   ar
    31     8     9   ar
    32     9    10   ar
    33    10    11    1
    34    10    12   ar
    35    12    13   ar
    36    31    25   ar
    37    37    32   ar
    38     6     1    1
    39    13     7   ar
    40    19    14    1
    41    22    23    1
@<TRIPOS>MOLECULE
*****
 37 41 0 0 0
SMALL
GASTEIGER

@<TRIPOS>ATOM
      1 C         142.5204  139.1394  158.4494 C.3     1  UNL1        0.0806
      2 C         142.4953  138.9424  156.9625 C.3     1  UNL1        0.0108
      3 C         142.6764  137.5701  156.3847 C.3     1  UNL1        0.0165
      4 C         142.8826  136.3948  157.2937 C.3     1  UNL1        0.0580
      5 C         142.9077  136.5918  158.7804 C.3     1  UNL1        0.0208
      6 C         142.7265  137.9641  159.3583 C.3     1  UNL1        0.0323
      7 C         142.7516  138.1611  160.8451 C.ar    1  UNL1       -0.0220
      8 C         141.5420  137.8263  161.6665 C.ar    1  UNL1       -0.0038
      9 C         141.5671  138.0233  163.1533 C.ar    1  UNL1        0.0064
     10 C         142.8018  138.5551  163.8186 C.ar    1  UNL1        0.0345
     11 BR        142.8269  138.7521  165.3055 Br      1  UNL1       -0.0490
     12 C         144.0114  138.8899  162.9972 C.ar    1  UNL1        0.0064
     13 C         143.9863  138.6929  161.5105 C.ar    1  UNL1       -0.0038
     14 N         143.0637  135.0224  156.7158 N.3     1  UNL1       -0.2697
     15 C         142.6922  134.7551  155.2873 C.3     1  UNL1        0.1046
     16 C         142.8733  133.3828  154.7094 C.3     1  UNL1        0.1595
     17 O         143.4260  132.2778  155.5601 O.3     1  UNL1       -0.3508
     18 C         143.7975  132.5451  156.9885 C.3     1  UNL1        0.1595
     19 C         143.6164  133.9174  157.5663 C.3     1  UNL1        0.1046
     20 O         143.5323  141.3904  159.2614 O.2     1  UNL1       -0.2751
     21 C         142.3392  140.5117  159.0272 C.2     1  UNL1        0.2228
     22 N         140.9652  141.0054  159.3710 N.am    1  UNL1       -0.2974
     23 H         140.1822  140.4287  159.2173 H       1  UNL1        0.1500
     24 C         140.7841  142.3777  159.9488 C.3     1  UNL1        0.1363
     25 C         140.5512  142.5469  161.4210 C.ar    1  UNL1        0.0013
     26 C         141.3779  141.7731  162.4049 C.ar    1  UNL1       -0.0014
     27 C         141.1450  141.9423  163.8770 C.ar    1  UNL1        0.0111
     28 C         140.0854  142.8852  164.3652 C.ar    1  UNL1        0.0577
     29 CL        139.8526  143.0543  165.8374 Cl      1  UNL1       -0.0822
     30 C         139.2588  143.6589  163.3814 C.ar    1  UNL1        0.0111
     31 C         139.4917  143.4897  161.9093 C.ar    1  UNL1       -0.0014
     32 C         140.8358  143.5809  159.0546 C.ar    1  UNL1        0.1001
     33 C         141.9388  144.5852  159.2116 C.ar    1  UNL1        0.1155
     34 N         141.9905  145.7884  158.3173 N.ar    1  UNL1       -0.2394
     35 C         140.9392  145.9872  157.2661 C.ar    1  UNL1        0.1195
     36 C         139.8361  144.9829  157.1091 C.ar    1  UNL1        0.1192
     37 N         139.7844  143.7798  158.0033 N.ar    1  UNL1       -0.2430
@<TRIPOS>BOND
     1    20    21    2
     2    21    22   am
     3    22    24    1
     4    24    25    1
     5    25    26   ar
     6    26    27   ar
     7    27    28   ar
     8    28    29    1
     9    28    30   ar
    10    30    31   ar
    11    24    32    1
    12    32    33   ar
    13    33    34   ar
    14    34    35   ar
    15    35    36   ar
    16    36    37   ar
    17     1    21    1
    18     1     2    1
    19     2     3    1
    20     3     4    1
    21     4    14    1
    22    14    15    1
    23    15    16    1
    24    16    17    1
    25    17    18    1
    26    18    19    1
    27     4     5    1
    28     5     6    1
    29     6     7    1
    30     7     8   ar
    31     8     9   ar
    32     9    10   ar
    33    10    11    1
    34    10    12   ar
    35    12    13   ar
    36    31    25   ar
    37    37    32   ar
    38     6     1    1
    39    13     7   ar
    40    19    14    1
    41    22    23    1
@<TRIPOS>MOLECULE
*****
 37 41 0 0 0
SMALL
GASTEIGER

@<TRIPOS>ATOM
      1 C         140.6648  143.2733  157.8764 C.3     1  UNL1        0.0806
      2 C         140.6126  143.4598  156.3889 C.3     1  UNL1        0.0108
      3 C         140.2544  144.7977  155.8129 C.3     1  UNL1        0.0165
      4 C         139.9485  145.9491  156.7244 C.3     1  UNL1        0.0580
      5 C         140.0007  145.7626  158.2118 C.3     1  UNL1        0.0208
      6 C         140.3589  144.4247  158.7878 C.3     1  UNL1        0.0323
      7 C         140.4111  144.2383  160.2753 C.ar    1  UNL1       -0.0220
      8 C         139.2481  143.6226  160.9953 C.ar    1  UNL1       -0.0038
      9 C         139.3004  143.4362  162.4827 C.ar    1  UNL1        0.0064
     10 C         140.5156  143.8654  163.2502 C.ar    1  UNL1        0.0345
     11 BR        140.5678  143.6789  164.7377 Br      1  UNL1       -0.0490
     12 C         141.6786  144.4810  162.5302 C.ar    1  UNL1        0.0064
     13 C         141.6263  144.6675  161.0428 C.ar    1  UNL1       -0.0038
     14 N         139.5903  147.2870  156.1484 N.3     1  UNL1       -0.2697
     15 C         138.7771  148.2568  156.9535 C.3     1  UNL1        0.1046
     16 C         138.4190  149.5947  156.3775 C.3     1  UNL1        0.1595
     17 O         138.8740  149.9628  154.9964 O.3     1  UNL1       -0.3508
     18 C         139.6871  148.9929  154.1913 C.3     1  UNL1        0.1595
     19 C         140.0453  147.6551  154.7673 C.3     1  UNL1        0.1046
     20 O         142.4442  141.6367  158.8278 O.2     1  UNL1       -0.2751
     21 C         141.0230  141.9355  158.4524 C.2     1  UNL1        0.2228
     22 N         139.9599  140.8964  158.6531 N.am    1  UNL1       -0.2974
     23 H         139.0272  141.0925  158.4068 H       1  UNL1        0.1500
     24 C         140.3181  139.5585  159.2291 C.3     1  UNL1        0.1363
     25 C         140.0524  139.2699  160.6770 C.ar    1  UNL1        0.0013
     26 C         139.1381  138.1448  161.0619 C.ar    1  UNL1       -0.0014
     27 C         138.8724  137.8561  162.5096 C.ar    1  UNL1        0.0111
     28 C         139.5210  138.6926  163.5725 C.ar    1  UNL1        0.0577
     29 CL        139.2552  138.4039  165.0203 Cl      1  UNL1       -0.0822
     30 C         140.4353  139.8177  163.1876 C.ar    1  UNL1        0.0111
     31 C         140.7009  140.1063  161.7398 C.ar    1  UNL1       -0.0014
     32 C         140.9420  138.5093  158.3574 C.ar    1  UNL1        0.1001
     33 C         142.3491  138.0587  158.6163 C.ar    1  UNL1        0.1155
     34 N         142.9729  137.0094  157.7445 N.ar    1  UNL1       -0.2394
     35 C         142.1897  136.4109  156.6139 C.ar    1  UNL1        0.1195
     36 C         140.7826  136.8616  156.3550 C.ar    1  UNL1        0.1192
     37 N         140.1588  137.9108  157.2267 N.ar    1  UNL1       -0.2430
@<TRIPOS>BOND
     1    20    21    2
     2    21    22   am
     3    22    24    1
     4    24    25    1
     5    25    26   ar
     6    26    27   ar
     7    27    28   ar
     8    28    29    1
     9    28    30   ar
    10    30    31   ar
    11    24    32    1
    12    32    33   ar
    13    33    34   ar
    14    34    35   ar
    15    35    36   ar
    16    36    37   ar
    17     1    21    1
    18     1     2    1
    19     2     3    1
    20     3     4    1
    21     4    14    1
    22    14    15    1
    23    15    16    1
    24    16    17    1
    25    17    18    1
    26    18    19    1
    27     4     5    1
    28     5     6    1
    29     6     7    1
    30     7     8   ar
    31     8     9   ar
    32     9    10   ar
    33    10    11    1
    34    10    12   ar
    35    12    13   ar
    36    31    25   ar
    37    37    32   ar
    38     6     1    1
    39    13     7   ar
    40    19    14    1
    41    22    23    1
@<TRIPOS>MOLECULE
*****
 37 41 0 0 0
SMALL
GASTEIGER

@<TRIPOS>ATOM
      1 C         141.6164  138.9265  161.3158 C.3     1  UNL1        0.0806
      2 C         141.5146  137.6759  162.1379 C.3     1  UNL1        0.0108
      3 C         140.8648  137.7176  163.4892 C.3     1  UNL1        0.0165
      4 C         140.3168  139.0098  164.0184 C.3     1  UNL1        0.0580
      5 C         140.4186  140.2602  163.1963 C.3     1  UNL1        0.0208
      6 C         141.0684  140.2186  161.8450 C.3     1  UNL1        0.0323
      7 C         141.1702  141.4691  161.0229 C.ar    1  UNL1       -0.0220
      8 C         140.0458  141.8604  160.1103 C.ar    1  UNL1       -0.0038
      9 C         140.1477  143.1109  159.2883 C.ar    1  UNL1        0.0064
     10 C         141.3738  143.9701  159.3787 C.ar    1  UNL1        0.0345
     11 BR        141.4756  145.2207  158.5566 Br      1  UNL1       -0.0490
     12 C         142.4981  143.5789  160.2913 C.ar    1  UNL1        0.0064
     13 C         142.3963  142.3284  161.1133 C.ar    1  UNL1       -0.0038
     14 N         139.6670  139.0514  165.3697 N.3     1  UNL1       -0.2697
     15 C         140.2953  139.8404  166.4801 C.3     1  UNL1        0.1046
     16 C         139.6455  139.8821  167.8314 C.3     1  UNL1        0.1595
     17 O         138.3674  139.1348  168.0723 O.3     1  UNL1       -0.3508
     18 C         137.7391  138.3458  166.9620 C.3     1  UNL1        0.1595
     19 C         138.3889  138.3042  165.6107 C.3     1  UNL1        0.1046
     20 O         143.7572  138.7644  159.8527 O.2     1  UNL1       -0.2751
     21 C         142.2662  138.8848  159.9645 C.2     1  UNL1        0.2228
     22 N         141.4250  138.9635  158.7251 N.am    1  UNL1       -0.2974
     23 H         140.4465  139.0426  158.7985 H       1  UNL1        0.1500
     24 C         142.0748  138.9219  157.3738 C.3     1  UNL1        0.1363
     25 C         142.4555  140.1989  156.6849 C.ar    1  UNL1        0.0013
     26 C         143.1845  141.2702  157.4404 C.ar    1  UNL1       -0.0014
     27 C         143.5650  142.5471  156.7516 C.ar    1  UNL1        0.0111
     28 C         143.2166  142.7527  155.3072 C.ar    1  UNL1        0.0577
     29 CL        143.5973  144.0297  154.6183 Cl      1  UNL1       -0.0822
     30 C         142.4876  141.6815  154.5516 C.ar    1  UNL1        0.0111
     31 C         142.1071  140.4045  155.2405 C.ar    1  UNL1       -0.0014
     32 C         142.3440  137.6033  156.7113 C.ar    1  UNL1        0.1001
     33 C         141.2059  136.6839  156.3806 C.ar    1  UNL1        0.1155
     34 N         141.4751  135.3653  155.7181 N.ar    1  UNL1       -0.2394
     35 C         142.8824  134.9661  155.3864 C.ar    1  UNL1        0.1195
     36 C         144.0206  135.8855  155.7171 C.ar    1  UNL1        0.1192
     37 N         143.7514  137.2041  156.3796 N.ar    1  UNL1       -0.2430
@<TRIPOS>BOND
     1    20    21    2
     2    21    22   am
     3    22    24    1
     4    24    25    1
     5    25    26   ar
     6    26    27   ar
     7    27    28   ar
     8    28    29    1
     9    28    30   ar
    10    30    31   ar
    11    24    32    1
    12    32    33   ar
    13    33    34   ar
    14    34    35   ar
    15    35    36   ar
    16    36    37   ar
    17     1    21    1
    18     1     2    1
    19     2     3    1
    20     3     4    1
    21     4    14    1
    22    14    15    1
    23    15    16    1
    24    16    17    1
    25    17    18    1
    26    18    19    1
    27     4     5    1
    28     5     6    1
    29     6     7    1
    30     7     8   ar
    31     8     9   ar
    32     9    10   ar
    33    10    11    1
    34    10    12   ar
    35    12    13   ar
    36    31    25   ar
    37    37    32   ar
    38     6     1    1
    39    13     7   ar
    40    19    14    1
    41    22    23    1
@<TRIPOS>MOLECULE
*****
 37 41 0 0 0
SMALL
GASTEIGER

@<TRIPOS>ATOM
      1 C         141.9853  138.8996  161.4867 C.3     1  UNL1        0.0806
      2 C         141.9271  137.6809  162.3593 C.3     1  UNL1        0.0108
      3 C         141.1851  137.7260  163.6621 C.3     1  UNL1        0.0165
      4 C         140.5012  138.9899  164.0923 C.3     1  UNL1        0.0580
      5 C         140.5594  140.2086  163.2197 C.3     1  UNL1        0.0208
      6 C         141.3015  140.1634  161.9169 C.3     1  UNL1        0.0323
      7 C         141.3597  141.3822  161.0443 C.ar    1  UNL1       -0.0220
      8 C         142.5436  142.3003  161.1162 C.ar    1  UNL1       -0.0038
      9 C         142.6018  143.5189  160.2437 C.ar    1  UNL1        0.0064
     10 C         141.4759  143.8195  159.2991 C.ar    1  UNL1        0.0345
     11 BR        141.5341  145.0382  158.4265 Br      1  UNL1       -0.0490
     12 C         140.2920  142.9014  159.2272 C.ar    1  UNL1        0.0064
     13 C         140.2338  141.6827  160.0998 C.ar    1  UNL1       -0.0038
     14 N         139.7592  139.0351  165.3951 N.3     1  UNL1       -0.2697
     15 C         138.4874  138.2573  165.5612 C.3     1  UNL1        0.1046
     16 C         137.7453  138.3024  166.8641 C.3     1  UNL1        0.1595
     17 O         138.2752  139.1254  168.0008 O.3     1  UNL1       -0.3508
     18 C         139.5469  139.9032  167.8347 C.3     1  UNL1        0.1595
     19 C         140.2889  139.8580  166.5318 C.3     1  UNL1        0.1046
     20 O         144.2261  138.9147  160.1719 O.2     1  UNL1       -0.2751
     21 C         142.7273  138.8545  160.1838 C.2     1  UNL1        0.2228
     22 N         141.9706  138.7491  158.8930 N.am    1  UNL1       -0.2974
     23 H         140.9869  138.7096  158.9009 H       1  UNL1        0.1500
     24 C         142.7126  138.7039  157.5902 C.3     1  UNL1        0.1363
     25 C         142.7267  137.4426  156.7784 C.ar    1  UNL1        0.0013
     26 C         142.9194  136.1176  157.4547 C.ar    1  UNL1       -0.0014
     27 C         142.9335  134.8564  156.6429 C.ar    1  UNL1        0.0111
     28 C         142.7549  134.9201  155.1549 C.ar    1  UNL1        0.0577
     29 CL        142.7691  133.6587  154.3432 Cl      1  UNL1       -0.0822
     30 C         142.5623  136.2450  154.4787 C.ar    1  UNL1        0.0111
     31 C         142.5482  137.5063  155.2905 C.ar    1  UNL1       -0.0014
     32 C         143.4405  139.9200  157.0991 C.ar    1  UNL1        0.1001
     33 C         142.6992  141.2090  156.9015 C.ar    1  UNL1        0.1155
     34 N         143.4272  142.4252  156.4104 N.ar    1  UNL1       -0.2394
     35 C         144.8964  142.3523  156.1169 C.ar    1  UNL1        0.1195
     36 C         145.6377  141.0633  156.3144 C.ar    1  UNL1        0.1192
     37 N         144.9098  139.8472  156.8055 N.ar    1  UNL1       -0.2430
@<TRIPOS>BOND
     1    20    21    2
     2    21    22   am
     3    22    24    1
     4    24    25    1
     5    25    26   ar
     6    26    27   ar
     7    27    28   ar
     8    28    29    1
     9    28    30   ar
    10    30    31   ar
    11    24    32    1
    12    32    33   ar
    13    33    34   ar
    14    34    35   ar
    15    35    36   ar
    16    36    37   ar
    17     1    21    1
    18     1     2    1
    19     2     3    1
    20     3     4    1
    21     4    14    1
    22    14    15    1
    23    15    16    1
    24    16    17    1
    25    17    18    1
    26    18    19    1
    27     4     5    1
    28     5     6    1
    29     6     7    1
    30     7     8   ar
    31     8     9   ar
    32     9    10   ar
    33    10    11    1
    34    10    12   ar
    35    12    13   ar
    36    31    25   ar
    37    37    32   ar
    38     6     1    1
    39    13     7   ar
    40    19    14    1
    41    22    23    1
@<TRIPOS>MOLECULE
*****
 37 41 0 0 0
SMALL
GASTEIGER

@<TRIPOS>ATOM
      1 C         140.4205  142.9863  157.2747 C.3     1  UNL1        0.0806
      2 C         140.1595  143.2236  155.8167 C.3     1  UNL1        0.0108
      3 C         139.8901  144.6129  155.3195 C.3     1  UNL1        0.0165
      4 C         139.8817  145.7649  156.2803 C.3     1  UNL1        0.0580
      5 C         140.1426  145.5275  157.7382 C.3     1  UNL1        0.0208
      6 C         140.4120  144.1382  158.2354 C.3     1  UNL1        0.0323
      7 C         140.6729  143.9009  159.6934 C.ar    1  UNL1       -0.0220
      8 C         139.5396  143.5479  160.6104 C.ar    1  UNL1       -0.0038
      9 C         139.8006  143.3106  162.0683 C.ar    1  UNL1        0.0064
     10 C         141.1949  143.4263  162.6092 C.ar    1  UNL1        0.0345
     11 BR        141.4558  143.1889  164.0672 Br      1  UNL1       -0.0490
     12 C         142.3282  143.7793  161.6922 C.ar    1  UNL1        0.0064
     13 C         142.0672  144.0166  160.2343 C.ar    1  UNL1       -0.0038
     14 N         139.6123  147.1542  155.7830 N.3     1  UNL1       -0.2697
     15 C         138.8090  148.1070  156.6179 C.3     1  UNL1        0.1046
     16 C         138.5396  149.4963  156.1207 C.3     1  UNL1        0.1595
     17 O         139.0735  149.9328  154.7885 O.3     1  UNL1       -0.3508
     18 C         139.8767  148.9800  153.9537 C.3     1  UNL1        0.1595
     19 C         140.1461  147.5907  154.4510 C.3     1  UNL1        0.1046
     20 O         139.5467  140.6781  158.0866 O.2     1  UNL1       -0.2751
     21 C         140.6899  141.5970  157.7720 C.2     1  UNL1        0.2228
     22 N         142.1024  141.1265  157.9547 N.am    1  UNL1       -0.2974
     23 H         142.8527  141.7295  157.7482 H       1  UNL1        0.1500
     24 C         142.3718  139.7372  158.4519 C.3     1  UNL1        0.1363
     25 C         142.5442  139.4866  159.9208 C.ar    1  UNL1        0.0013
     26 C         143.6899  138.6510  160.4097 C.ar    1  UNL1       -0.0014
     27 C         143.8623  138.4004  161.8785 C.ar    1  UNL1        0.0111
     28 C         142.8889  138.9855  162.8584 C.ar    1  UNL1        0.0577
     29 CL        143.0613  138.7349  164.3273 Cl      1  UNL1       -0.0822
     30 C         141.7432  139.8211  162.3696 C.ar    1  UNL1        0.0111
     31 C         141.5708  140.0716  160.9007 C.ar    1  UNL1       -0.0014
     32 C         142.4688  138.5985  157.4804 C.ar    1  UNL1        0.1001
     33 C         141.3369  137.6224  157.3534 C.ar    1  UNL1        0.1155
     34 N         141.4339  136.4837  156.3818 N.ar    1  UNL1       -0.2394
     35 C         142.6628  136.3211  155.5372 C.ar    1  UNL1        0.1195
     36 C         143.7947  137.2972  155.6641 C.ar    1  UNL1        0.1192
     37 N         143.6977  138.4359  156.6357 N.ar    1  UNL1       -0.2430
@<TRIPOS>BOND
     1    20    21    2
     2    21    22   am
     3    22    24    1
     4    24    25    1
     5    25    26   ar
     6    26    27   ar
     7    27    28   ar
     8    28    29    1
     9    28    30   ar
    10    30    31   ar
    11    24    32    1
    12    32    33   ar
    13    33    34   ar
    14    34    35   ar
    15    35    36   ar
    16    36    37   ar
    17     1    21    1
    18     1     2    1
    19     2     3    1
    20     3     4    1
    21     4    14    1
    22    14    15    1
    23    15    16    1
    24    16    17    1
    25    17    18    1
    26    18    19    1
    27     4     5    1
    28     5     6    1
    29     6     7    1
    30     7     8   ar
    31     8     9   ar
    32     9    10   ar
    33    10    11    1
    34    10    12   ar
    35    12    13   ar
    36    31    25   ar
    37    37    32   ar
    38     6     1    1
    39    13     7   ar
    40    19    14    1
    41    22    23    1
@<TRIPOS>MOLECULE
*****
 37 41 0 0 0
SMALL
GASTEIGER

@<TRIPOS>ATOM
      1 C         141.9567  139.0639  158.1451 C.3     1  UNL1        0.0806
      2 C         141.8024  138.7729  156.6817 C.3     1  UNL1        0.0108
      3 C         142.1557  137.4174  156.1452 C.3     1  UNL1        0.0165
      4 C         142.6632  136.3528  157.0722 C.3     1  UNL1        0.0580
      5 C         142.8175  136.6439  158.5356 C.3     1  UNL1        0.0208
      6 C         142.4642  137.9994  159.0720 C.3     1  UNL1        0.0323
      7 C         142.6185  138.2904  160.5355 C.ar    1  UNL1       -0.0220
      8 C         141.4709  138.0543  161.4721 C.ar    1  UNL1       -0.0038
      9 C         141.6252  138.3453  162.9355 C.ar    1  UNL1        0.0064
     10 C         142.9270  138.8724  163.4622 C.ar    1  UNL1        0.0345
     11 BR        143.0813  139.1633  164.9257 Br      1  UNL1       -0.0490
     12 C         144.0746  139.1084  162.5256 C.ar    1  UNL1        0.0064
     13 C         143.9203  138.8175  161.0622 C.ar    1  UNL1       -0.0038
     14 N         143.0165  134.9973  156.5358 N.3     1  UNL1       -0.2697
     15 C         143.7479  134.0151  157.4022 C.3     1  UNL1        0.1046
     16 C         144.1011  132.6596  156.8657 C.3     1  UNL1        0.1595
     17 O         143.7231  132.2863  155.4629 O.3     1  UNL1       -0.3508
     18 C         142.9918  133.2685  154.5966 C.3     1  UNL1        0.1595
     19 C         142.6385  134.6240  155.1331 C.3     1  UNL1        0.1046
     20 O         142.6868  141.4111  158.9864 O.2     1  UNL1       -0.2751
     21 C         141.6034  140.4194  158.6816 C.2     1  UNL1        0.2228
     22 N         140.1668  140.7833  158.9131 N.am    1  UNL1       -0.2974
     23 H         139.4557  140.1324  158.7131 H       1  UNL1        0.1500
     24 C         139.8135  142.1388  159.4496 C.3     1  UNL1        0.1363
     25 C         139.8431  143.3346  158.5445 C.ar    1  UNL1        0.0013
     26 C         140.5695  144.5772  158.9669 C.ar    1  UNL1       -0.0014
     27 C         140.5991  145.7729  158.0618 C.ar    1  UNL1        0.0111
     28 C         139.9023  145.7262  156.7343 C.ar    1  UNL1        0.0577
     29 CL        139.9319  146.9220  155.8292 Cl      1  UNL1       -0.0822
     30 C         139.1759  144.4836  156.3119 C.ar    1  UNL1        0.0111
     31 C         139.1463  143.2879  157.2170 C.ar    1  UNL1       -0.0014
     32 C         139.4307  142.2985  160.8910 C.ar    1  UNL1        0.1001
     33 C         140.3067  141.7291  161.9673 C.ar    1  UNL1        0.1155
     34 N         139.9238  141.8888  163.4088 N.ar    1  UNL1       -0.2394
     35 C         138.6648  142.6179  163.7740 C.ar    1  UNL1        0.1195
     36 C         137.7888  143.1874  162.6978 C.ar    1  UNL1        0.1192
     37 N         138.1717  143.0277  161.2563 N.ar    1  UNL1       -0.2430
@<TRIPOS>BOND
     1    20    21    2
     2    21    22   am
     3    22    24    1
     4    24    25    1
     5    25    26   ar
     6    26    27   ar
     7    27    28   ar
     8    28    29    1
     9    28    30   ar
    10    30    31   ar
    11    24    32    1
    12    32    33   ar
    13    33    34   ar
    14    34    35   ar
    15    35    36   ar
    16    36    37   ar
    17     1    21    1
    18     1     2    1
    19     2     3    1
    20     3     4    1
    21     4    14    1
    22    14    15    1
    23    15    16    1
    24    16    17    1
    25    17    18    1
    26    18    19    1
    27     4     5    1
    28     5     6    1
    29     6     7    1
    30     7     8   ar
    31     8     9   ar
    32     9    10   ar
    33    10    11    1
    34    10    12   ar
    35    12    13   ar
    36    31    25   ar
    37    37    32   ar
    38     6     1    1
    39    13     7   ar
    40    19    14    1
    41    22    23    1
