@<TRIPOS>MOLECULE
*****
 32 35 0 0 0
SMALL
GASTEIGER

@<TRIPOS>ATOM
      1 C         142.3420  143.4472  158.6626 C.2     1  UNL1        0.0596
      2 C         141.8269  142.5121  159.7164 C.2     1  UNL1        0.0324
      3 C         140.7495  142.9632  160.6575 C.2     1  UNL1        0.0889
      4 N         140.0488  142.2691  161.7877 N.2     1  UNL1       -0.2236
      5 C         139.0535  143.2263  162.3736 C.2     1  UNL1        0.1859
      6 N         139.1391  144.5119  161.6055 N.2     1  UNL1       -0.2387
      7 C         140.1873  144.3493  160.5449 C.3     1  UNL1        0.1679
      8 C         140.7024  145.2843  159.4912 C.2     1  UNL1        0.0164
      9 C         141.7798  144.8332  158.5500 C.2     1  UNL1        0.0690
     10 CL        142.2949  145.7683  157.4963 Cl      1  UNL1       -0.0812
     11 N         145.5742  142.0940  155.8391 N.3     1  UNL1       -0.2698
     12 C         145.8757  142.2626  157.2988 C.3     1  UNL1        0.0938
     13 C         144.7983  142.7137  158.2399 C.3     1  UNL1        0.1081
     14 N         143.4194  142.9961  157.7214 N.pl3   1  UNL1       -0.3040
     15 C         143.1179  142.8275  156.2617 C.3     1  UNL1        0.1081
     16 C         144.1953  142.3764  155.3206 C.3     1  UNL1        0.0938
     17 C         148.0938  141.7911  155.2825 C.3     1  UNL1        0.0188
     18 C         146.6515  141.6429  154.8979 C.3     1  UNL1        0.0722
     19 S         138.1341  142.9469  163.5253 S.3     1  UNL1       -0.0777
     20 C         138.3697  141.7515  164.4003 C.3     1  UNL1        0.0462
     21 C         137.3261  141.1966  163.4767 C.3     1  UNL1        0.0113
     22 C         139.3315  142.7216  165.0200 C.3     1  UNL1        0.0121
     23 C         140.1665  142.3036  166.1939 C.3     1  UNL1        0.0205
     24 C         140.0397  140.9154  166.7481 C.3     1  UNL1        0.0748
     25 C         139.0780  139.9454  166.1283 C.3     1  UNL1        0.0205
     26 C         138.2429  140.3635  164.9544 C.3     1  UNL1        0.0121
     27 N         140.8747  140.4974  167.9220 N.am    1  UNL1       -0.2723
     28 C         142.1412  139.7237  167.7039 C.2     1  UNL1        0.4017
     29 O         142.5726  139.3681  166.3120 O.2     1  UNL1       -0.2264
     30 H         140.5916  140.7308  168.8355 H       1  UNL1        0.1527
     31 O         142.9762  139.3057  168.8778 O.3     1  UNL1       -0.4306
     32 C         142.5987  139.7451  170.2613 C.3     1  UNL1        0.2573
@<TRIPOS>BOND
     1    17    18    1
     2    18    11    1
     3    11    12    1
     4    12    13    1
     5    13    14    1
     6    14     1    1
     7     1     2    2
     8     2     3    1
     9     3     4    2
    10     4     5    1
    11     5    19    1
    12    19    20    1
    13    20    21    1
    14    20    22    1
    15    22    23    1
    16    23    24    1
    17    24    27    1
    18    27    28   am
    19    28    29    2
    20    28    31    1
    21    31    32    1
    22    24    25    1
    23    25    26    1
    24     5     6    2
    25     6     7    1
    26     7     8    1
    27     8     9    2
    28     9    10    1
    29    14    15    1
    30    15    16    1
    31    16    11    1
    32     9     1    1
    33     7     3    1
    34    26    20    1
    35    27    30    1
@<TRIPOS>MOLECULE
*****
 32 35 0 0 0
SMALL
GASTEIGER

@<TRIPOS>ATOM
      1 C         140.8151  139.1756  163.9410 C.2     1  UNL1        0.0596
      2 C         141.4961  139.6950  162.7094 C.2     1  UNL1        0.0324
      3 C         140.9890  139.3074  161.3521 C.2     1  UNL1        0.0889
      4 N         141.4515  139.6599  159.9694 N.2     1  UNL1       -0.2236
      5 C         140.5493  138.9709  158.9890 C.2     1  UNL1        0.1859
      6 N         139.5291  138.1924  159.7657 N.2     1  UNL1       -0.2387
      7 C         139.8008  138.4004  161.2262 C.3     1  UNL1        0.1679
      8 C         139.1199  137.8811  162.4577 C.2     1  UNL1        0.0164
      9 C         139.6271  138.2687  163.8151 C.2     1  UNL1        0.0690
     10 CL        138.9461  137.7493  165.0466 Cl      1  UNL1       -0.0812
     11 N         142.3367  140.3386  168.0132 N.3     1  UNL1       -0.2698
     12 C         141.2527  141.1434  167.3596 C.3     1  UNL1        0.0938
     13 C         140.7455  140.7558  166.0022 C.3     1  UNL1        0.1081
     14 N         141.3223  139.5633  165.2984 N.pl3   1  UNL1       -0.3040
     15 C         142.4063  138.7584  165.9521 C.3     1  UNL1        0.1081
     16 C         142.9135  139.1461  167.3094 C.3     1  UNL1        0.0938
     17 C         143.4548  142.0793  169.5847 C.3     1  UNL1        0.0188
     18 C         142.8439  140.7262  169.3705 C.3     1  UNL1        0.0722
     19 S         140.6496  139.0469  157.4943 S.3     1  UNL1       -0.0777
     20 C         140.8238  137.7931  156.6896 C.3     1  UNL1        0.0462
     21 C         139.3895  138.1043  156.3797 C.3     1  UNL1        0.0113
     22 C         142.1976  137.9173  157.2790 C.3     1  UNL1        0.0121
     23 C         143.2475  136.8958  156.9560 C.3     1  UNL1        0.0205
     24 C         142.9235  135.7500  156.0436 C.3     1  UNL1        0.0748
     25 C         141.5497  135.6259  155.4543 C.3     1  UNL1        0.0205
     26 C         140.4999  136.6474  155.7772 C.3     1  UNL1        0.0121
     27 N         143.9734  134.7285  155.7206 N.am    1  UNL1       -0.2723
     28 C         143.9211  133.3719  156.3584 C.2     1  UNL1        0.4017
     29 O         142.8190  133.0368  157.3191 O.2     1  UNL1       -0.2264
     30 H         144.6967  134.9485  155.0900 H       1  UNL1        0.1527
     31 O         144.9709  132.3503  156.0355 O.3     1  UNL1       -0.4306
     32 C         144.5780  130.9249  155.7832 C.3     1  UNL1        0.2573
@<TRIPOS>BOND
     1    17    18    1
     2    18    11    1
     3    11    12    1
     4    12    13    1
     5    13    14    1
     6    14     1    1
     7     1     2    2
     8     2     3    1
     9     3     4    2
    10     4     5    1
    11     5    19    1
    12    19    20    1
    13    20    21    1
    14    20    22    1
    15    22    23    1
    16    23    24    1
    17    24    27    1
    18    27    28   am
    19    28    29    2
    20    28    31    1
    21    31    32    1
    22    24    25    1
    23    25    26    1
    24     5     6    2
    25     6     7    1
    26     7     8    1
    27     8     9    2
    28     9    10    1
    29    14    15    1
    30    15    16    1
    31    16    11    1
    32     9     1    1
    33     7     3    1
    34    26    20    1
    35    27    30    1
@<TRIPOS>MOLECULE
*****
 32 35 0 0 0
SMALL
GASTEIGER

@<TRIPOS>ATOM
      1 C         141.3279  140.4579  160.0228 C.2     1  UNL1        0.0596
      2 C         140.8510  139.3242  159.1639 C.2     1  UNL1        0.0324
      3 C         141.7469  138.7599  158.1014 C.2     1  UNL1        0.0889
      4 N         141.5528  137.6517  157.1094 N.2     1  UNL1       -0.2236
      5 C         142.8056  137.5361  156.2927 C.2     1  UNL1        0.1859
      6 N         143.7740  138.5728  156.7799 N.2     1  UNL1       -0.2387
      7 C         143.1197  139.3292  157.8978 C.3     1  UNL1        0.1679
      8 C         143.5965  140.4628  158.7567 C.2     1  UNL1        0.0164
      9 C         142.7006  141.0271  159.8191 C.2     1  UNL1        0.0690
     10 CL        143.1775  142.1607  160.6780 Cl      1  UNL1       -0.0812
     11 N         138.6401  142.1508  163.2103 N.3     1  UNL1       -0.2698
     12 C         139.5412  140.9939  163.5258 C.3     1  UNL1        0.0938
     13 C         140.4371  140.4296  162.4633 C.3     1  UNL1        0.1081
     14 N         140.4319  141.0222  161.0853 N.pl3   1  UNL1       -0.3040
     15 C         139.5308  142.1791  160.7698 C.3     1  UNL1        0.1081
     16 C         138.6349  142.7434  161.8323 C.3     1  UNL1        0.0938
     17 C         137.8412  144.1655  164.6430 C.3     1  UNL1        0.0188
     18 C         137.7442  142.7152  164.2727 C.3     1  UNL1        0.0722
     19 S         143.0476  136.5558  155.1834 S.3     1  UNL1       -0.0777
     20 C         142.5186  135.1563  155.2906 C.3     1  UNL1        0.0462
     21 C         141.6157  135.6948  154.2207 C.3     1  UNL1        0.0113
     22 C         143.6053  135.1039  156.3233 C.3     1  UNL1        0.0121
     23 C         143.8495  133.8389  157.0916 C.3     1  UNL1        0.0205
     24 C         143.0069  132.6264  156.8272 C.3     1  UNL1        0.0748
     25 C         141.9203  132.6788  155.7946 C.3     1  UNL1        0.0205
     26 C         141.6761  133.9438  155.0262 C.3     1  UNL1        0.0121
     27 N         143.2510  131.3614  157.5955 N.am    1  UNL1       -0.2723
     28 C         144.2787  130.3794  157.1164 C.2     1  UNL1        0.4017
     29 O         145.0622  130.6624  155.8690 O.2     1  UNL1       -0.2264
     30 H         142.7368  131.1757  158.4143 H       1  UNL1        0.1527
     31 O         144.5229  129.1145  157.8847 O.3     1  UNL1       -0.4306
     32 C         143.7470  128.8364  159.1379 C.3     1  UNL1        0.2573
@<TRIPOS>BOND
     1    17    18    1
     2    18    11    1
     3    11    12    1
     4    12    13    1
     5    13    14    1
     6    14     1    1
     7     1     2    2
     8     2     3    1
     9     3     4    2
    10     4     5    1
    11     5    19    1
    12    19    20    1
    13    20    21    1
    14    20    22    1
    15    22    23    1
    16    23    24    1
    17    24    27    1
    18    27    28   am
    19    28    29    2
    20    28    31    1
    21    31    32    1
    22    24    25    1
    23    25    26    1
    24     5     6    2
    25     6     7    1
    26     7     8    1
    27     8     9    2
    28     9    10    1
    29    14    15    1
    30    15    16    1
    31    16    11    1
    32     9     1    1
    33     7     3    1
    34    26    20    1
    35    27    30    1
@<TRIPOS>MOLECULE
*****
 32 35 0 0 0
SMALL
GASTEIGER

@<TRIPOS>ATOM
      1 C         139.4737  141.8935  163.9669 C.2     1  UNL1        0.0596
      2 C         139.9317  141.1464  162.7494 C.2     1  UNL1        0.0324
      3 C         139.4548  141.5638  161.3899 C.2     1  UNL1        0.0889
      4 N         139.7333  141.0229  160.0188 N.2     1  UNL1       -0.2236
      5 C         138.9705  141.8531  159.0294 C.2     1  UNL1        0.1859
      6 N         138.2206  142.9070  159.7890 N.2     1  UNL1       -0.2387
      7 C         138.5199  142.7282  161.2479 C.3     1  UNL1        0.1679
      8 C         138.0619  143.4752  162.4653 C.2     1  UNL1        0.0164
      9 C         138.5388  143.0578  163.8248 C.2     1  UNL1        0.0690
     10 CL        138.0808  143.8049  165.0423 Cl      1  UNL1       -0.0812
     11 N         140.9045  140.6414  168.0456 N.3     1  UNL1       -0.2698
     12 C         141.6336  141.7138  167.2915 C.3     1  UNL1        0.0938
     13 C         141.1566  142.1311  165.9320 C.3     1  UNL1        0.1081
     14 N         139.9506  141.4761  165.3265 N.pl3   1  UNL1       -0.3040
     15 C         139.2216  140.4038  166.0806 C.3     1  UNL1        0.1081
     16 C         139.6985  139.9865  167.4401 C.3     1  UNL1        0.0938
     17 C         142.4082  139.1387  169.5392 C.3     1  UNL1        0.0188
     18 C         141.3814  140.2240  169.4051 C.3     1  UNL1        0.0722
     19 S         138.9595  141.6628  157.5416 S.3     1  UNL1       -0.0777
     20 C         138.2198  142.6312  156.6670 C.3     1  UNL1        0.0462
     21 C         137.1565  141.5912  156.8615 C.3     1  UNL1        0.0113
     22 C         139.5400  143.3348  156.7762 C.3     1  UNL1        0.0121
     23 C         139.7513  144.6457  156.0783 C.3     1  UNL1        0.0205
     24 C         138.6421  145.2530  155.2713 C.3     1  UNL1        0.0748
     25 C         137.3220  144.5494  155.1622 C.3     1  UNL1        0.0205
     26 C         137.1107  143.2385  155.8600 C.3     1  UNL1        0.0121
     27 N         138.8534  146.5639  154.5735 N.am    1  UNL1       -0.2723
     28 C         138.9715  147.8281  155.3721 C.2     1  UNL1        0.4017
     29 O         138.8784  147.7814  156.8685 O.2     1  UNL1       -0.2264
     30 H         138.9145  146.5945  153.5914 H       1  UNL1        0.1527
     31 O         139.1827  149.1391  154.6744 O.3     1  UNL1       -0.4306
     32 C         140.3763  149.3325  153.7867 C.3     1  UNL1        0.2573
@<TRIPOS>BOND
     1    17    18    1
     2    18    11    1
     3    11    12    1
     4    12    13    1
     5    13    14    1
     6    14     1    1
     7     1     2    2
     8     2     3    1
     9     3     4    2
    10     4     5    1
    11     5    19    1
    12    19    20    1
    13    20    21    1
    14    20    22    1
    15    22    23    1
    16    23    24    1
    17    24    27    1
    18    27    28   am
    19    28    29    2
    20    28    31    1
    21    31    32    1
    22    24    25    1
    23    25    26    1
    24     5     6    2
    25     6     7    1
    26     7     8    1
    27     8     9    2
    28     9    10    1
    29    14    15    1
    30    15    16    1
    31    16    11    1
    32     9     1    1
    33     7     3    1
    34    26    20    1
    35    27    30    1
@<TRIPOS>MOLECULE
*****
 32 35 0 0 0
SMALL
GASTEIGER

@<TRIPOS>ATOM
      1 C         143.5540  140.6081  158.4269 C.2     1  UNL1        0.0596
      2 C         143.7677  139.5464  159.4648 C.2     1  UNL1        0.0324
      3 C         142.6717  139.2126  160.4329 C.2     1  UNL1        0.0889
      4 N         142.5919  138.2215  161.5559 N.2     1  UNL1       -0.2236
      5 C         141.2329  138.3369  162.1802 C.2     1  UNL1        0.1859
      6 N         140.4727  139.3993  161.4430 N.2     1  UNL1       -0.2387
      7 C         141.3620  139.9406  160.3631 C.3     1  UNL1        0.1679
      8 C         141.1484  141.0022  159.3252 C.2     1  UNL1        0.0164
      9 C         142.2444  141.3360  158.3571 C.2     1  UNL1        0.0690
     10 CL        142.0307  142.3977  157.3192 Cl      1  UNL1       -0.0812
     11 N         146.8423  141.6093  155.5225 N.3     1  UNL1       -0.2698
     12 C         145.9510  140.4298  155.2688 C.3     1  UNL1        0.0938
     13 C         144.8549  140.0961  156.2369 C.3     1  UNL1        0.1081
     14 N         144.6502  140.9419  157.4587 N.pl3   1  UNL1       -0.3040
     15 C         145.5415  142.1214  157.7124 C.3     1  UNL1        0.1081
     16 C         146.6375  142.4551  156.7443 C.3     1  UNL1        0.0938
     17 C         149.3731  141.8200  154.9743 C.3     1  UNL1        0.0188
     18 C         147.9383  141.9431  154.5544 C.3     1  UNL1        0.0722
     19 S         140.7234  137.5312  163.3384 S.3     1  UNL1       -0.0777
     20 C         140.1700  138.2240  164.5483 C.3     1  UNL1        0.0462
     21 C         138.9153  137.6075  164.0046 C.3     1  UNL1        0.0113
     22 C         141.6169  138.6000  164.6718 C.3     1  UNL1        0.0121
     23 C         142.0747  139.4547  165.8163 C.3     1  UNL1        0.0205
     24 C         141.0855  139.9334  166.8374 C.3     1  UNL1        0.0748
     25 C         139.6387  139.5574  166.7139 C.3     1  UNL1        0.0205
     26 C         139.1809  138.7027  165.5693 C.3     1  UNL1        0.0121
     27 N         141.5433  140.7880  167.9820 N.am    1  UNL1       -0.2723
     28 C         142.5188  140.2423  168.9822 C.2     1  UNL1        0.4017
     29 O         143.0365  138.8418  168.8378 O.2     1  UNL1       -0.2264
     30 H         141.2035  141.7072  168.0767 H       1  UNL1        0.1527
     31 O         142.9767  141.0969  170.1268 O.3     1  UNL1       -0.4306
     32 C         143.8517  142.2879  169.8704 C.3     1  UNL1        0.2573
@<TRIPOS>BOND
     1    17    18    1
     2    18    11    1
     3    11    12    1
     4    12    13    1
     5    13    14    1
     6    14     1    1
     7     1     2    2
     8     2     3    1
     9     3     4    2
    10     4     5    1
    11     5    19    1
    12    19    20    1
    13    20    21    1
    14    20    22    1
    15    22    23    1
    16    23    24    1
    17    24    27    1
    18    27    28   am
    19    28    29    2
    20    28    31    1
    21    31    32    1
    22    24    25    1
    23    25    26    1
    24     5     6    2
    25     6     7    1
    26     7     8    1
    27     8     9    2
    28     9    10    1
    29    14    15    1
    30    15    16    1
    31    16    11    1
    32     9     1    1
    33     7     3    1
    34    26    20    1
    35    27    30    1
@<TRIPOS>MOLECULE
*****
 32 35 0 0 0
SMALL
GASTEIGER

@<TRIPOS>ATOM
      1 C         142.4379  140.2269  163.6098 C.2     1  UNL1        0.0596
      2 C         141.6061  140.3992  162.3735 C.2     1  UNL1        0.0324
      3 C         142.1580  140.0009  161.0368 C.2     1  UNL1        0.0889
      4 N         141.5768  140.0532  159.6550 N.2     1  UNL1       -0.2236
      5 C         142.6012  139.5149  158.7006 C.2     1  UNL1        0.1859
      6 N         143.8156  139.1300  159.4926 N.2     1  UNL1       -0.2387
      7 C         143.5417  139.4304  160.9364 C.3     1  UNL1        0.1679
      8 C         144.3734  139.2581  162.1728 C.2     1  UNL1        0.0164
      9 C         143.8215  139.6564  163.5095 C.2     1  UNL1        0.0690
     10 CL        144.6533  139.4841  164.7458 Cl      1  UNL1       -0.0812
     11 N         140.7822  141.4217  167.6200 N.3     1  UNL1       -0.2698
     12 C         141.2812  142.4713  166.6717 C.3     1  UNL1        0.0938
     13 C         141.8331  142.0730  165.3350 C.3     1  UNL1        0.1081
     14 N         141.8860  140.6252  164.9466 N.pl3   1  UNL1       -0.3040
     15 C         141.3870  139.5756  165.8949 C.3     1  UNL1        0.1081
     16 C         140.8351  139.9738  167.2316 C.3     1  UNL1        0.0938
     17 C         140.5159  143.1847  169.5097 C.3     1  UNL1        0.0188
     18 C         140.2303  141.8199  168.9567 C.3     1  UNL1        0.0722
     19 S         142.4397  139.3844  157.2151 S.3     1  UNL1       -0.0777
     20 C         143.2233  138.3496  156.4634 C.3     1  UNL1        0.0462
     21 C         144.0044  139.5790  156.1050 C.3     1  UNL1        0.0113
     22 C         142.1700  137.4796  157.0829 C.3     1  UNL1        0.0121
     23 C         142.1716  136.0017  156.8263 C.3     1  UNL1        0.0205
     24 C         143.2267  135.3938  155.9501 C.3     1  UNL1        0.0748
     25 C         144.2799  136.2638  155.3307 C.3     1  UNL1        0.0205
     26 C         144.2783  137.7417  155.5873 C.3     1  UNL1        0.0121
     27 N         143.2283  133.9159  155.6935 N.am    1  UNL1       -0.2723
     28 C         143.7423  132.9734  156.7411 C.2     1  UNL1        0.4017
     29 O         144.2548  133.5088  158.0452 O.2     1  UNL1       -0.2264
     30 H         142.8920  133.5645  154.8375 H       1  UNL1        0.1527
     31 O         143.7440  131.4955  156.4845 O.3     1  UNL1       -0.4306
     32 C         144.8756  130.8671  155.7265 C.3     1  UNL1        0.2573
@<TRIPOS>BOND
     1    17    18    1
     2    18    11    1
     3    11    12    1
     4    12    13    1
     5    13    14    1
     6    14     1    1
     7     1     2    2
     8     2     3    1
     9     3     4    2
    10     4     5    1
    11     5    19    1
    12    19    20    1
    13    20    21    1
    14    20    22    1
    15    22    23    1
    16    23    24    1
    17    24    27    1
    18    27    28   am
    19    28    29    2
    20    28    31    1
    21    31    32    1
    22    24    25    1
    23    25    26    1
    24     5     6    2
    25     6     7    1
    26     7     8    1
    27     8     9    2
    28     9    10    1
    29    14    15    1
    30    15    16    1
    31    16    11    1
    32     9     1    1
    33     7     3    1
    34    26    20    1
    35    27    30    1
@<TRIPOS>MOLECULE
*****
 32 35 0 0 0
SMALL
GASTEIGER

@<TRIPOS>ATOM
      1 C         140.1793  139.5778  161.8048 C.2     1  UNL1        0.0596
      2 C         141.4026  138.9567  161.1982 C.2     1  UNL1        0.0324
      3 C         141.3798  138.4940  159.7716 C.2     1  UNL1        0.0889
      4 N         142.4241  137.8500  158.9086 N.2     1  UNL1       -0.2236
      5 C         141.8235  137.6103  157.5552 C.2     1  UNL1        0.1859
      6 N         140.4081  138.1062  157.5817 N.2     1  UNL1       -0.2387
      7 C         140.1339  138.6524  158.9515 C.3     1  UNL1        0.1679
      8 C         138.9106  139.2735  159.5581 C.2     1  UNL1        0.0164
      9 C         138.9334  139.7362  160.9848 C.2     1  UNL1        0.0690
     10 CL        137.7101  140.3573  161.5913 Cl      1  UNL1       -0.0812
     11 N         140.2474  140.9660  166.0848 N.3     1  UNL1       -0.2698
     12 C         140.6392  141.9074  164.9847 C.3     1  UNL1        0.0938
     13 C         140.6165  141.4447  163.5581 C.3     1  UNL1        0.1081
     14 N         140.2020  140.0406  163.2316 N.pl3   1  UNL1       -0.3040
     15 C         139.8102  139.0992  164.3317 C.3     1  UNL1        0.1081
     16 C         139.8329  139.5619  165.7583 C.3     1  UNL1        0.0938
     17 C         141.1797  142.5484  167.9225 C.3     1  UNL1        0.0188
     18 C         140.2701  141.4287  167.5115 C.3     1  UNL1        0.0722
     19 S         142.5166  136.9846  156.3812 S.3     1  UNL1       -0.0777
     20 C         142.2633  135.5460  156.0401 C.3     1  UNL1        0.0462
     21 C         141.4865  136.2142  154.9446 C.3     1  UNL1        0.0113
     22 C         143.1281  135.3775  157.2541 C.3     1  UNL1        0.0121
     23 C         143.4698  134.0024  157.7465 C.3     1  UNL1        0.0205
     24 C         142.9467  132.7959  157.0249 C.3     1  UNL1        0.0748
     25 C         142.0819  132.9645  155.8110 C.3     1  UNL1        0.0205
     26 C         141.7402  134.3395  155.3186 C.3     1  UNL1        0.0121
     27 N         143.2884  131.4208  157.5173 N.am    1  UNL1       -0.2723
     28 C         144.4198  130.6600  156.8921 C.2     1  UNL1        0.4017
     29 O         145.2096  131.2743  155.7745 O.2     1  UNL1       -0.2264
     30 H         142.7701  131.0177  158.2509 H       1  UNL1        0.1527
     31 O         144.7616  129.2850  157.3845 O.3     1  UNL1       -0.4306
     32 C         144.2248  128.8044  158.7000 C.3     1  UNL1        0.2573
@<TRIPOS>BOND
     1    17    18    1
     2    18    11    1
     3    11    12    1
     4    12    13    1
     5    13    14    1
     6    14     1    1
     7     1     2    2
     8     2     3    1
     9     3     4    2
    10     4     5    1
    11     5    19    1
    12    19    20    1
    13    20    21    1
    14    20    22    1
    15    22    23    1
    16    23    24    1
    17    24    27    1
    18    27    28   am
    19    28    29    2
    20    28    31    1
    21    31    32    1
    22    24    25    1
    23    25    26    1
    24     5     6    2
    25     6     7    1
    26     7     8    1
    27     8     9    2
    28     9    10    1
    29    14    15    1
    30    15    16    1
    31    16    11    1
    32     9     1    1
    33     7     3    1
    34    26    20    1
    35    27    30    1
@<TRIPOS>MOLECULE
*****
 32 35 0 0 0
SMALL
GASTEIGER

@<TRIPOS>ATOM
      1 C         142.3504  140.7119  158.3350 C.2     1  UNL1        0.0596
      2 C         141.5436  140.9142  159.5833 C.2     1  UNL1        0.0324
      3 C         141.8189  142.0911  160.4716 C.2     1  UNL1        0.0889
      4 N         141.1927  142.5473  161.7560 N.2     1  UNL1       -0.2236
      5 C         141.8877  143.8038  162.1898 C.2     1  UNL1        0.1859
      6 N         142.9435  144.1241  161.1736 N.2     1  UNL1       -0.2387
      7 C         142.9009  143.0656  160.1116 C.3     1  UNL1        0.1679
      8 C         143.7076  142.8632  158.8633 C.2     1  UNL1        0.0164
      9 C         143.4323  141.6863  157.9750 C.2     1  UNL1        0.0690
     10 CL        144.2391  141.4839  156.7267 Cl      1  UNL1       -0.0812
     11 N         141.5244  137.1811  155.6700 N.3     1  UNL1       -0.2698
     12 C         140.9216  138.5175  155.3527 C.3     1  UNL1        0.0938
     13 C         141.1969  139.6944  156.2410 C.3     1  UNL1        0.1081
     14 N         142.0750  139.5349  157.4466 N.pl3   1  UNL1       -0.3040
     15 C         142.6778  138.1985  157.7639 C.3     1  UNL1        0.1081
     16 C         142.4025  137.0216  156.8756 C.3     1  UNL1        0.0938
     17 C         142.3008  135.5236  153.8261 C.3     1  UNL1        0.0188
     18 C         141.2492  136.0042  154.7817 C.3     1  UNL1        0.0722
     19 S         141.5809  144.6002  163.4234 S.3     1  UNL1       -0.0777
     20 C         140.9825  143.9256  164.6221 C.3     1  UNL1        0.0462
     21 C         139.8286  144.7890  164.2061 C.3     1  UNL1        0.0113
     22 C         142.3443  143.2964  164.6218 C.3     1  UNL1        0.0121
     23 C         142.7069  142.2926  165.6758 C.3     1  UNL1        0.0205
     24 C         141.7077  141.9178  166.7300 C.3     1  UNL1        0.0748
     25 C         140.3461  142.5469  166.7302 C.3     1  UNL1        0.0205
     26 C         139.9834  143.5508  165.6763 C.3     1  UNL1        0.0121
     27 N         142.0703  140.9140  167.7839 N.am    1  UNL1       -0.2723
     28 C         142.9215  141.3240  168.9490 C.2     1  UNL1        0.4017
     29 O         143.4101  142.7379  169.0601 O.2     1  UNL1       -0.2264
     30 H         141.7497  139.9860  167.7110 H       1  UNL1        0.1527
     31 O         143.2842  140.3202  170.0029 O.3     1  UNL1       -0.4306
     32 C         142.5372  139.0224  170.0915 C.3     1  UNL1        0.2573
@<TRIPOS>BOND
     1    17    18    1
     2    18    11    1
     3    11    12    1
     4    12    13    1
     5    13    14    1
     6    14     1    1
     7     1     2    2
     8     2     3    1
     9     3     4    2
    10     4     5    1
    11     5    19    1
    12    19    20    1
    13    20    21    1
    14    20    22    1
    15    22    23    1
    16    23    24    1
    17    24    27    1
    18    27    28   am
    19    28    29    2
    20    28    31    1
    21    31    32    1
    22    24    25    1
    23    25    26    1
    24     5     6    2
    25     6     7    1
    26     7     8    1
    27     8     9    2
    28     9    10    1
    29    14    15    1
    30    15    16    1
    31    16    11    1
    32     9     1    1
    33     7     3    1
    34    26    20    1
    35    27    30    1
@<TRIPOS>MOLECULE
*****
 32 35 0 0 0
SMALL
GASTEIGER

@<TRIPOS>ATOM
      1 C         139.8757  139.9768  158.1590 C.2     1  UNL1        0.0596
      2 C         139.7353  139.7086  159.6282 C.2     1  UNL1        0.0324
      3 C         139.0850  140.7265  160.5176 C.2     1  UNL1        0.0889
      4 N         138.8085  140.7408  161.9918 N.2     1  UNL1       -0.2236
      5 C         138.1276  142.0356  162.3231 C.2     1  UNL1        0.1859
      6 N         137.9834  142.8216  161.0537 N.2     1  UNL1       -0.2387
      7 C         138.5751  142.0125  159.9378 C.3     1  UNL1        0.1679
      8 C         138.7155  142.2807  158.4687 C.2     1  UNL1        0.0164
      9 C         139.3658  141.2628  157.5793 C.2     1  UNL1        0.0690
     10 CL        139.5061  141.5310  156.1101 Cl      1  UNL1       -0.0812
     11 N         141.8265  136.9231  155.4908 N.3     1  UNL1       -0.2698
     12 C         140.3423  136.8923  155.7057 C.3     1  UNL1        0.0938
     13 C         139.6921  137.9102  156.5951 C.3     1  UNL1        0.1081
     14 N         140.5260  138.9589  157.2696 N.pl3   1  UNL1       -0.3040
     15 C         142.0102  138.9896  157.0547 C.3     1  UNL1        0.1081
     16 C         142.6605  137.9717  156.1653 C.3     1  UNL1        0.0938
     17 C         141.6651  135.1879  153.5638 C.3     1  UNL1        0.0188
     18 C         142.4769  135.9052  154.6015 C.3     1  UNL1        0.0722
     19 S         137.6711  142.4685  163.6848 S.3     1  UNL1       -0.0777
     20 C         138.6763  142.7054  164.7727 C.3     1  UNL1        0.0462
     21 C         138.5216  144.1036  164.2521 C.3     1  UNL1        0.0113
     22 C         138.4820  141.2249  164.9155 C.3     1  UNL1        0.0121
     23 C         139.2391  140.4668  165.9654 C.3     1  UNL1        0.0205
     24 C         140.1905  141.1894  166.8724 C.3     1  UNL1        0.0748
     25 C         140.3849  142.6698  166.7296 C.3     1  UNL1        0.0205
     26 C         139.6278  143.4279  165.6797 C.3     1  UNL1        0.0121
     27 N         140.9476  140.4313  167.9223 N.am    1  UNL1       -0.2723
     28 C         140.2771  140.0657  169.2133 C.2     1  UNL1        0.4017
     29 O         138.8496  140.4581  169.4544 O.2     1  UNL1       -0.2264
     30 H         141.8846  140.1738  167.7640 H       1  UNL1        0.1527
     31 O         141.0342  139.3076  170.2632 O.3     1  UNL1       -0.4306
     32 C         142.4626  138.9177  170.0234 C.3     1  UNL1        0.2573
@<TRIPOS>BOND
     1    17    18    1
     2    18    11    1
     3    11    12    1
     4    12    13    1
     5    13    14    1
     6    14     1    1
     7     1     2    2
     8     2     3    1
     9     3     4    2
    10     4     5    1
    11     5    19    1
    12    19    20    1
    13    20    21    1
    14    20    22    1
    15    22    23    1
    16    23    24    1
    17    24    27    1
    18    27    28   am
    19    28    29    2
    20    28    31    1
    21    31    32    1
    22    24    25    1
    23    25    26    1
    24     5     6    2
    25     6     7    1
    26     7     8    1
    27     8     9    2
    28     9    10    1
    29    14    15    1
    30    15    16    1
    31    16    11    1
    32     9     1    1
    33     7     3    1
    34    26    20    1
    35    27    30    1
