@<TRIPOS>MOLECULE
*****
 42 47 0 0 0
SMALL
GASTEIGER

@<TRIPOS>ATOM
      1 N         139.1730  142.4850  160.3573 N.am    1  UNL1       -0.1907
      2 C         138.4767  141.6005  159.3659 C.2     1  UNL1        0.3219
      3 O         137.8079  140.2925  159.6686 O.2     1  UNL1       -0.2512
      4 N         138.5665  142.2537  158.0186 N.am    1  UNL1       -0.2223
      5 C         139.3185  143.5420  158.1773 C.3     1  UNL1        0.1391
      6 C         140.0819  144.7951  158.4886 C.3     1  UNL1        0.0449
      7 C         140.4027  145.7693  157.3941 C.3     1  UNL1        0.0746
      8 N         139.9600  145.4904  155.9883 N.3     1  UNL1       -0.2676
      9 C         139.1966  144.2374  155.6770 C.3     1  UNL1        0.0746
     10 C         138.8758  143.2632  156.7715 C.3     1  UNL1        0.0449
     11 C         139.6933  143.6849  159.6226 C.2     1  UNL1        0.2529
     12 O         140.4547  144.8271  160.2273 O.2     1  UNL1       -0.2724
     13 C         139.6224  141.6801  164.7618 C.ar    1  UNL1       -0.0002
     14 C         138.3914  142.3648  164.2463 C.ar    1  UNL1        0.0013
     15 C         138.2416  142.6331  162.7781 C.ar    1  UNL1        0.0154
     16 C         139.3228  142.2167  161.8255 C.ar    1  UNL1        0.0622
     17 C         140.5537  141.5320  162.3410 C.ar    1  UNL1        0.0154
     18 C         140.7035  141.2637  163.8091 C.ar    1  UNL1        0.0013
     19 C         138.5407  139.1424  165.9409 C.3     1  UNL1        0.0310
     20 C         139.2313  140.1429  166.8195 C.ar    1  UNL1       -0.0218
     21 C         139.3811  139.8746  168.2877 C.ar    1  UNL1       -0.0031
     22 C         140.0717  140.8751  169.1664 C.ar    1  UNL1        0.0137
     23 C         140.6126  142.1440  168.5768 C.ar    1  UNL1        0.0011
     24 C         140.4628  142.4123  167.1086 C.ar    1  UNL1       -0.0003
     25 C         139.7722  141.4118  166.2300 C.ar    1  UNL1       -0.0040
     26 C         140.2215  140.6068  170.6346 C.2     1  UNL1        0.0729
     27 O         139.4686  139.4763  171.2710 O.co2   1  UNL1       -0.5446
     28 O         141.1242  141.4690  171.4663 O.co2   1  UNL1       -0.5446
     29 C         138.0034  141.7137  156.7375 C.ar    1  UNL1        0.1422
     30 C         138.8162  140.7724  155.8989 C.ar    1  UNL1        0.0554
     31 C         138.2530  140.2323  154.6178 C.ar    1  UNL1        0.1036
     32 N         136.8770  140.6336  154.1753 N.ar    1  UNL1       -0.2223
     33 C         136.0643  141.5749  155.0139 C.ar    1  UNL1        0.2001
     34 N         136.6275  142.1149  156.2950 N.ar    1  UNL1       -0.2086
     35 C         140.2808  146.4647  154.8937 C.3     1  UNL1        0.1183
     36 C         139.7650  147.8713  154.9668 C.ar    1  UNL1        0.0712
     37 N         138.8895  148.2907  156.1103 N.ar    1  UNL1       -0.2471
     38 C         138.3737  149.6974  156.1833 C.ar    1  UNL1        0.0985
     39 C         138.7333  150.6846  155.1128 C.ar    1  UNL1        0.0203
     40 C         139.6088  150.2652  153.9693 C.ar    1  UNL1       -0.0015
     41 C         140.1246  148.8586  153.8963 C.ar    1  UNL1       -0.0069
     42 C         141.0001  148.4393  152.7527 C.3     1  UNL1        0.0323
@<TRIPOS>UNITY_ATOM_ATTR
27 1
charge -1
@<TRIPOS>BOND
     1    19    20    1
     2    20    21   ar
     3    21    22   ar
     4    22    26    1
     5    26    27   ar
     6    26    28   ar
     7    22    23   ar
     8    23    24   ar
     9    24    25   ar
    10    25    13    1
    11    13    14   ar
    12    14    15   ar
    13    15    16   ar
    14    16     1    1
    15     1     2   am
    16     2     3    2
    17     2     4   am
    18     4    29    1
    19    29    30   ar
    20    30    31   ar
    21    31    32   ar
    22    32    33   ar
    23    33    34   ar
    24     4     5    1
    25     5     6    1
    26     6     7    1
    27     7     8    1
    28     8    35    1
    29    35    36    1
    30    36    37   ar
    31    37    38   ar
    32    38    39   ar
    33    39    40   ar
    34    40    41   ar
    35    41    42    1
    36     8     9    1
    37     9    10    1
    38     5    11    1
    39    11    12    2
    40    16    17   ar
    41    17    18   ar
    42    25    20   ar
    43    18    13   ar
    44    11     1   am
    45    34    29   ar
    46    10     5    1
    47    41    36   ar
@<TRIPOS>MOLECULE
*****
 42 47 0 0 0
SMALL
GASTEIGER

@<TRIPOS>ATOM
      1 N         142.8828  140.5844  160.7718 N.am    1  UNL1       -0.1907
      2 C         143.4714  141.6179  159.8577 C.2     1  UNL1        0.3219
      3 O         143.7789  143.0410  160.2180 O.2     1  UNL1       -0.2512
      4 N         143.6986  140.9782  158.5201 N.am    1  UNL1       -0.2223
      5 C         143.2504  139.5493  158.6075 C.3     1  UNL1        0.1391
      6 C         142.7644  138.1501  158.8444 C.3     1  UNL1        0.0449
      7 C         142.8120  137.1418  157.7349 C.3     1  UNL1        0.0746
      8 N         143.3455  137.5326  156.3886 N.3     1  UNL1       -0.2676
      9 C         143.8315  138.9317  156.1517 C.3     1  UNL1        0.0746
     10 C         143.7839  139.9401  157.2611 C.3     1  UNL1        0.0449
     11 C         142.7462  139.3059  159.9991 C.2     1  UNL1        0.2529
     12 O         142.2011  138.0115  160.5256 O.2     1  UNL1       -0.2724
     13 C         141.7295  141.2095  165.0763 C.ar    1  UNL1       -0.0002
     14 C         141.0935  142.0400  164.0012 C.ar    1  UNL1        0.0013
     15 C         141.4779  141.8316  162.5664 C.ar    1  UNL1        0.0154
     16 C         142.4984  140.7928  162.2067 C.ar    1  UNL1        0.0622
     17 C         143.1343  139.9623  163.2817 C.ar    1  UNL1        0.0154
     18 C         142.7499  140.1707  164.7165 C.ar    1  UNL1        0.0013
     19 C         139.4016  139.7153  166.2377 C.3     1  UNL1        0.0310
     20 C         140.1811  140.6708  167.0918 C.ar    1  UNL1       -0.0218
     21 C         139.7966  140.8791  168.5267 C.ar    1  UNL1       -0.0031
     22 C         140.5761  141.8346  169.3809 C.ar    1  UNL1        0.0137
     23 C         141.7400  142.5817  168.8002 C.ar    1  UNL1        0.0011
     24 C         142.1245  142.3733  167.3653 C.ar    1  UNL1       -0.0003
     25 C         141.3450  141.4179  166.5112 C.ar    1  UNL1       -0.0040
     26 C         140.1916  142.0429  170.8157 C.2     1  UNL1        0.0729
     27 O         140.6948  141.1032  171.8710 O.co2   1  UNL1       -0.5446
     28 O         139.3040  143.1910  171.1952 O.co2   1  UNL1       -0.5446
     29 C         144.2730  141.6494  157.3079 C.ar    1  UNL1        0.1422
     30 C         143.3722  142.3832  156.3592 C.ar    1  UNL1        0.0554
     31 C         143.9468  143.0543  155.1470 C.ar    1  UNL1        0.1036
     32 N         145.4222  142.9917  154.8835 N.ar    1  UNL1       -0.2223
     33 C         146.3230  142.2579  155.8322 C.ar    1  UNL1        0.2001
     34 N         145.7484  141.5868  157.0444 N.ar    1  UNL1       -0.2086
     35 C         143.3931  136.5241  155.2791 C.3     1  UNL1        0.1183
     36 C         143.0311  135.0938  155.5496 C.ar    1  UNL1        0.0712
     37 N         143.9726  134.2142  156.3177 N.ar    1  UNL1       -0.2471
     38 C         143.6106  132.7839  156.5882 C.ar    1  UNL1        0.0985
     39 C         142.3071  132.2332  156.0907 C.ar    1  UNL1        0.0203
     40 C         141.3656  133.1128  155.3226 C.ar    1  UNL1       -0.0015
     41 C         141.7276  134.5431  155.0521 C.ar    1  UNL1       -0.0069
     42 C         140.7860  135.4226  154.2841 C.3     1  UNL1        0.0323
@<TRIPOS>UNITY_ATOM_ATTR
27 1
charge -1
@<TRIPOS>BOND
     1    19    20    1
     2    20    21   ar
     3    21    22   ar
     4    22    26    1
     5    26    27   ar
     6    26    28   ar
     7    22    23   ar
     8    23    24   ar
     9    24    25   ar
    10    25    13    1
    11    13    14   ar
    12    14    15   ar
    13    15    16   ar
    14    16     1    1
    15     1     2   am
    16     2     3    2
    17     2     4   am
    18     4    29    1
    19    29    30   ar
    20    30    31   ar
    21    31    32   ar
    22    32    33   ar
    23    33    34   ar
    24     4     5    1
    25     5     6    1
    26     6     7    1
    27     7     8    1
    28     8    35    1
    29    35    36    1
    30    36    37   ar
    31    37    38   ar
    32    38    39   ar
    33    39    40   ar
    34    40    41   ar
    35    41    42    1
    36     8     9    1
    37     9    10    1
    38     5    11    1
    39    11    12    2
    40    16    17   ar
    41    17    18   ar
    42    25    20   ar
    43    18    13   ar
    44    11     1   am
    45    34    29   ar
    46    10     5    1
    47    41    36   ar
@<TRIPOS>MOLECULE
*****
 42 47 0 0 0
SMALL
GASTEIGER

@<TRIPOS>ATOM
      1 N         142.0643  139.6273  160.8129 N.am    1  UNL1       -0.1907
      2 C         141.3287  138.5956  160.0100 C.2     1  UNL1        0.3219
      3 O         140.1884  137.7500  160.4942 O.2     1  UNL1       -0.2512
      4 N         141.9337  138.5580  158.6380 N.am    1  UNL1       -0.2223
      5 C         143.0433  139.5665  158.5928 C.3     1  UNL1        0.1391
      6 C         144.1179  140.6077  158.6971 C.3     1  UNL1        0.0449
      7 C         144.9930  140.9034  157.5153 C.3     1  UNL1        0.0746
      8 N         144.7935  140.1578  156.2292 N.3     1  UNL1       -0.2676
      9 C         143.7189  139.1165  156.1248 C.3     1  UNL1        0.0746
     10 C         142.8438  138.8208  157.3066 C.3     1  UNL1        0.0449
     11 C         143.1240  140.2273  159.9369 C.2     1  UNL1        0.2529
     12 O         144.0940  141.2999  160.3353 O.2     1  UNL1       -0.2724
     13 C         141.2374  140.7289  165.0968 C.ar    1  UNL1       -0.0002
     14 C         140.5503  141.4672  163.9865 C.ar    1  UNL1        0.0013
     15 C         140.8259  141.1000  162.5585 C.ar    1  UNL1        0.0154
     16 C         141.7887  139.9945  162.2409 C.ar    1  UNL1        0.0622
     17 C         142.4758  139.2563  163.3511 C.ar    1  UNL1        0.0154
     18 C         142.2002  139.6235  164.7791 C.ar    1  UNL1        0.0013
     19 C         139.0817  139.3056  166.6224 C.3     1  UNL1        0.0310
     20 C         139.8839  140.3844  167.2876 C.ar    1  UNL1       -0.0218
     21 C         139.6083  140.7516  168.7156 C.ar    1  UNL1       -0.0031
     22 C         140.4105  141.8305  169.3809 C.ar    1  UNL1        0.0137
     23 C         141.4884  142.5422  168.6181 C.ar    1  UNL1        0.0011
     24 C         141.7640  142.1750  167.1901 C.ar    1  UNL1       -0.0003
     25 C         140.9618  141.0961  166.5248 C.ar    1  UNL1       -0.0040
     26 C         140.1349  142.1977  170.8089 C.2     1  UNL1        0.0729
     27 O         140.7223  141.3795  171.9204 O.co2   1  UNL1       -0.5446
     28 O         139.2718  143.3830  171.1253 O.co2   1  UNL1       -0.5446
     29 C         141.5046  137.6682  157.5092 C.ar    1  UNL1        0.1422
     30 C         140.2907  138.0162  156.6996 C.ar    1  UNL1        0.0554
     31 C         139.8617  137.1263  155.5709 C.ar    1  UNL1        0.1036
     32 N         140.6465  135.8885  155.2517 N.ar    1  UNL1       -0.2223
     33 C         141.8603  135.5405  156.0612 C.ar    1  UNL1        0.2001
     34 N         142.2894  136.4303  157.1900 N.ar    1  UNL1       -0.2086
     35 C         145.6687  140.4535  155.0473 C.3     1  UNL1        0.1183
     36 C         145.8301  141.8657  154.5682 C.ar    1  UNL1        0.0712
     37 N         144.6863  142.5645  153.8948 N.ar    1  UNL1       -0.2471
     38 C         144.8478  143.9768  153.4157 C.ar    1  UNL1        0.0985
     39 C         146.1529  144.6902  153.6100 C.ar    1  UNL1        0.0203
     40 C         147.2966  143.9913  154.2835 C.ar    1  UNL1       -0.0015
     41 C         147.1352  142.5791  154.7626 C.ar    1  UNL1       -0.0069
     42 C         148.2789  141.8803  155.4360 C.3     1  UNL1        0.0323
@<TRIPOS>UNITY_ATOM_ATTR
27 1
charge -1
@<TRIPOS>BOND
     1    19    20    1
     2    20    21   ar
     3    21    22   ar
     4    22    26    1
     5    26    27   ar
     6    26    28   ar
     7    22    23   ar
     8    23    24   ar
     9    24    25   ar
    10    25    13    1
    11    13    14   ar
    12    14    15   ar
    13    15    16   ar
    14    16     1    1
    15     1     2   am
    16     2     3    2
    17     2     4   am
    18     4    29    1
    19    29    30   ar
    20    30    31   ar
    21    31    32   ar
    22    32    33   ar
    23    33    34   ar
    24     4     5    1
    25     5     6    1
    26     6     7    1
    27     7     8    1
    28     8    35    1
    29    35    36    1
    30    36    37   ar
    31    37    38   ar
    32    38    39   ar
    33    39    40   ar
    34    40    41   ar
    35    41    42    1
    36     8     9    1
    37     9    10    1
    38     5    11    1
    39    11    12    2
    40    16    17   ar
    41    17    18   ar
    42    25    20   ar
    43    18    13   ar
    44    11     1   am
    45    34    29   ar
    46    10     5    1
    47    41    36   ar
@<TRIPOS>MOLECULE
*****
 42 47 0 0 0
SMALL
GASTEIGER

@<TRIPOS>ATOM
      1 N         142.7664  140.0486  160.5760 N.am    1  UNL1       -0.1907
      2 C         142.3265  139.0254  159.5711 C.2     1  UNL1        0.3219
      3 O         141.4415  137.8456  159.8438 O.2     1  UNL1       -0.2512
      4 N         142.9272  139.3894  158.2456 N.am    1  UNL1       -0.2223
      5 C         143.7383  140.6375  158.4313 C.3     1  UNL1        0.1391
      6 C         144.5064  141.8811  158.7679 C.3     1  UNL1        0.0449
      7 C         145.2808  142.5962  157.7008 C.3     1  UNL1        0.0746
      8 N         145.2871  142.0677  156.2970 N.3     1  UNL1       -0.2676
      9 C         144.5190  140.8241  155.9603 C.3     1  UNL1        0.0746
     10 C         143.7446  140.1091  157.0275 C.3     1  UNL1        0.0449
     11 C         143.6389  141.0449  159.8715 C.2     1  UNL1        0.2529
     12 O         144.2966  142.2390  160.4974 O.2     1  UNL1       -0.2724
     13 C         141.6625  140.1171  164.9379 C.ar    1  UNL1       -0.0002
     14 C         141.4011  141.3188  164.0791 C.ar    1  UNL1        0.0013
     15 C         141.7691  141.2960  162.6251 C.ar    1  UNL1        0.0154
     16 C         142.3984  140.0714  162.0299 C.ar    1  UNL1        0.0622
     17 C         142.6598  138.8697  162.8887 C.ar    1  UNL1        0.0154
     18 C         142.2918  138.8926  164.3426 C.ar    1  UNL1        0.0013
     19 C         138.7992  139.7765  165.7661 C.3     1  UNL1        0.0310
     20 C         139.8629  139.9696  166.8059 C.ar    1  UNL1       -0.0218
     21 C         139.4949  139.9925  168.2599 C.ar    1  UNL1       -0.0031
     22 C         140.5585  140.1856  169.2998 C.ar    1  UNL1        0.0137
     23 C         141.9902  140.3558  168.8857 C.ar    1  UNL1        0.0011
     24 C         142.3582  140.3330  167.4318 C.ar    1  UNL1       -0.0003
     25 C         141.2945  140.1399  166.3918 C.ar    1  UNL1       -0.0040
     26 C         140.1905  140.2084  170.7538 C.2     1  UNL1        0.0729
     27 O         140.8012  141.2306  171.6660 O.co2   1  UNL1       -0.5446
     28 O         139.2118  139.2090  171.2956 O.co2   1  UNL1       -0.5446
     29 C         142.7482  138.6374  156.9602 C.ar    1  UNL1        0.1422
     30 C         141.5844  138.9470  156.0659 C.ar    1  UNL1        0.0554
     31 C         141.4055  138.1949  154.7805 C.ar    1  UNL1        0.1036
     32 N         142.3903  137.1332  154.3893 N.ar    1  UNL1       -0.2223
     33 C         143.5541  136.8237  155.2835 C.ar    1  UNL1        0.2001
     34 N         143.7330  137.5757  156.5690 N.ar    1  UNL1       -0.2086
     35 C         146.0616  142.7829  155.2298 C.3     1  UNL1        0.1183
     36 C         147.4367  142.3127  154.8584 C.ar    1  UNL1        0.0712
     37 N         148.4605  142.0699  155.9275 N.ar    1  UNL1       -0.2471
     38 C         149.8357  141.5997  155.5561 C.ar    1  UNL1        0.0985
     39 C         150.1870  141.3723  154.1156 C.ar    1  UNL1        0.0203
     40 C         149.1632  141.6151  153.0466 C.ar    1  UNL1       -0.0015
     41 C         147.7881  142.0853  153.4180 C.ar    1  UNL1       -0.0069
     42 C         146.7643  142.3281  152.3489 C.3     1  UNL1        0.0323
@<TRIPOS>UNITY_ATOM_ATTR
27 1
charge -1
@<TRIPOS>BOND
     1    19    20    1
     2    20    21   ar
     3    21    22   ar
     4    22    26    1
     5    26    27   ar
     6    26    28   ar
     7    22    23   ar
     8    23    24   ar
     9    24    25   ar
    10    25    13    1
    11    13    14   ar
    12    14    15   ar
    13    15    16   ar
    14    16     1    1
    15     1     2   am
    16     2     3    2
    17     2     4   am
    18     4    29    1
    19    29    30   ar
    20    30    31   ar
    21    31    32   ar
    22    32    33   ar
    23    33    34   ar
    24     4     5    1
    25     5     6    1
    26     6     7    1
    27     7     8    1
    28     8    35    1
    29    35    36    1
    30    36    37   ar
    31    37    38   ar
    32    38    39   ar
    33    39    40   ar
    34    40    41   ar
    35    41    42    1
    36     8     9    1
    37     9    10    1
    38     5    11    1
    39    11    12    2
    40    16    17   ar
    41    17    18   ar
    42    25    20   ar
    43    18    13   ar
    44    11     1   am
    45    34    29   ar
    46    10     5    1
    47    41    36   ar
@<TRIPOS>MOLECULE
*****
 42 47 0 0 0
SMALL
GASTEIGER

@<TRIPOS>ATOM
      1 N         139.4370  142.9314  157.1450 N.am    1  UNL1       -0.1907
      2 C         139.8951  141.7457  156.3485 C.2     1  UNL1        0.3219
      3 O         140.3723  141.7698  154.9268 O.2     1  UNL1       -0.2512
      4 N         139.7922  140.5318  157.2236 N.am    1  UNL1       -0.2223
      5 C         139.2705  140.9671  158.5609 C.3     1  UNL1        0.1391
      6 C         138.7452  141.5483  159.8401 C.3     1  UNL1        0.0449
      7 C         138.4882  140.6571  161.0189 C.3     1  UNL1        0.0746
      8 N         138.7564  139.1847  160.9185 N.3     1  UNL1       -0.2676
      9 C         139.2817  138.6035  159.6394 C.3     1  UNL1        0.0746
     10 C         139.5387  139.4947  158.4606 C.3     1  UNL1        0.0449
     11 C         139.0509  142.4502  158.5124 C.2     1  UNL1        0.2529
     12 O         138.5358  143.3024  159.6341 O.2     1  UNL1       -0.2724
     13 C         139.2530  147.1851  155.6883 C.ar    1  UNL1       -0.0002
     14 C         138.2856  146.1684  155.1586 C.ar    1  UNL1        0.0013
     15 C         138.3470  144.7505  155.6442 C.ar    1  UNL1        0.0154
     16 C         139.3757  144.3493  156.6595 C.ar    1  UNL1        0.0622
     17 C         140.3429  145.3660  157.1892 C.ar    1  UNL1        0.0154
     18 C         140.2816  146.7839  156.7036 C.ar    1  UNL1        0.0013
     19 C         138.1279  149.3297  157.4591 C.3     1  UNL1        0.0310
     20 C         138.6292  149.6753  156.0881 C.ar    1  UNL1       -0.0218
     21 C         138.5678  151.0933  155.6026 C.ar    1  UNL1       -0.0031
     22 C         139.0690  151.4389  154.2317 C.ar    1  UNL1        0.0137
     23 C         139.6315  150.3666  153.3463 C.ar    1  UNL1        0.0011
     24 C         139.6929  148.9487  153.8319 C.ar    1  UNL1       -0.0003
     25 C         139.1917  148.6030  155.2028 C.ar    1  UNL1       -0.0040
     26 C         139.0077  152.8568  153.7461 C.2     1  UNL1        0.0729
     27 O         138.1456  153.2103  152.5706 O.co2   1  UNL1       -0.5446
     28 O         139.8084  153.9211  154.4361 O.co2   1  UNL1       -0.5446
     29 C         140.1485  139.1288  156.8305 C.ar    1  UNL1        0.1422
     30 C         141.5437  138.6212  157.0443 C.ar    1  UNL1        0.0554
     31 C         141.8999  137.2182  156.6512 C.ar    1  UNL1        0.1036
     32 N         140.8608  136.3226  156.0441 N.ar    1  UNL1       -0.2223
     33 C         139.4656  136.8302  155.8302 C.ar    1  UNL1        0.2001
     34 N         139.1095  138.2332  156.2234 N.ar    1  UNL1       -0.2086
     35 C         138.4994  138.2935  162.0974 C.3     1  UNL1        0.1183
     36 C         139.0185  138.6737  163.4524 C.ar    1  UNL1        0.0712
     37 N         138.1818  139.5194  164.3660 N.ar    1  UNL1       -0.2471
     38 C         138.7010  139.8996  165.7210 C.ar    1  UNL1        0.0985
     39 C         140.0569  139.4341  166.1623 C.ar    1  UNL1        0.0203
     40 C         140.8936  138.5884  165.2487 C.ar    1  UNL1       -0.0015
     41 C         140.3745  138.2082  163.8938 C.ar    1  UNL1       -0.0069
     42 C         141.2112  137.3625  162.9802 C.3     1  UNL1        0.0323
@<TRIPOS>UNITY_ATOM_ATTR
27 1
charge -1
@<TRIPOS>BOND
     1    19    20    1
     2    20    21   ar
     3    21    22   ar
     4    22    26    1
     5    26    27   ar
     6    26    28   ar
     7    22    23   ar
     8    23    24   ar
     9    24    25   ar
    10    25    13    1
    11    13    14   ar
    12    14    15   ar
    13    15    16   ar
    14    16     1    1
    15     1     2   am
    16     2     3    2
    17     2     4   am
    18     4    29    1
    19    29    30   ar
    20    30    31   ar
    21    31    32   ar
    22    32    33   ar
    23    33    34   ar
    24     4     5    1
    25     5     6    1
    26     6     7    1
    27     7     8    1
    28     8    35    1
    29    35    36    1
    30    36    37   ar
    31    37    38   ar
    32    38    39   ar
    33    39    40   ar
    34    40    41   ar
    35    41    42    1
    36     8     9    1
    37     9    10    1
    38     5    11    1
    39    11    12    2
    40    16    17   ar
    41    17    18   ar
    42    25    20   ar
    43    18    13   ar
    44    11     1   am
    45    34    29   ar
    46    10     5    1
    47    41    36   ar
@<TRIPOS>MOLECULE
*****
 42 47 0 0 0
SMALL
GASTEIGER

@<TRIPOS>ATOM
      1 N         141.4406  139.3427  160.7253 N.am    1  UNL1       -0.1907
      2 C         142.4859  138.5425  160.0062 C.2     1  UNL1        0.3219
      3 O         143.7392  137.9833  160.6114 O.2     1  UNL1       -0.2512
      4 N         142.0577  138.3996  158.5758 N.am    1  UNL1       -0.2223
      5 C         140.7477  139.1116  158.4106 C.3     1  UNL1        0.1391
      6 C         139.4476  139.8594  158.3981 C.3     1  UNL1        0.0449
      7 C         138.6578  139.9692  157.1276 C.3     1  UNL1        0.0746
      8 N         139.1681  139.3311  155.8697 N.3     1  UNL1       -0.2676
      9 C         140.4683  138.5832  155.8823 C.3     1  UNL1        0.0746
     10 C         141.2581  138.4734  157.1527 C.3     1  UNL1        0.0449
     11 C         140.3663  139.6944  159.7391 C.2     1  UNL1        0.2529
     12 O         139.1281  140.4894  160.0303 O.2     1  UNL1       -0.2724
     13 C         141.5143  140.4873  165.0766 C.ar    1  UNL1       -0.0002
     14 C         142.5308  141.0590  164.1334 C.ar    1  UNL1        0.0013
     15 C         142.5063  140.6775  162.6829 C.ar    1  UNL1        0.0154
     16 C         141.4651  139.7242  162.1757 C.ar    1  UNL1        0.0622
     17 C         140.4486  139.1525  163.1189 C.ar    1  UNL1        0.0154
     18 C         140.4732  139.5341  164.5694 C.ar    1  UNL1        0.0013
     19 C         143.1106  138.8617  167.0284 C.3     1  UNL1        0.0310
     20 C         142.3370  140.0560  167.5029 C.ar    1  UNL1       -0.0218
     21 C         142.3616  140.4376  168.9534 C.ar    1  UNL1       -0.0031
     22 C         141.5880  141.6319  169.4280 C.ar    1  UNL1        0.0137
     23 C         140.7898  142.4446  168.4521 C.ar    1  UNL1        0.0011
     24 C         140.7652  142.0631  167.0016 C.ar    1  UNL1       -0.0003
     25 C         141.5388  140.8688  166.5270 C.ar    1  UNL1       -0.0040
     26 C         141.6125  142.0134  170.8785 C.2     1  UNL1        0.0729
     27 O         142.5112  143.1187  171.3481 O.co2   1  UNL1       -0.5446
     28 O         140.7384  141.2895  171.8593 O.co2   1  UNL1       -0.5446
     29 C         142.8078  137.6725  157.4993 C.ar    1  UNL1        0.1422
     30 C         142.6446  136.1898  157.3420 C.ar    1  UNL1        0.0554
     31 C         143.3947  135.4627  156.2656 C.ar    1  UNL1        0.1036
     32 N         144.3080  136.2184  155.3463 N.ar    1  UNL1       -0.2223
     33 C         144.4711  137.7012  155.5036 C.ar    1  UNL1        0.2001
     34 N         143.7210  138.4282  156.5801 N.ar    1  UNL1       -0.2086
     35 C         138.3782  139.4409  154.5992 C.3     1  UNL1        0.1183
     36 C         136.9605  139.9293  154.6373 C.ar    1  UNL1        0.0712
     37 N         135.8793  139.0509  155.1935 N.ar    1  UNL1       -0.2471
     38 C         134.4616  139.5394  155.2316 C.ar    1  UNL1        0.0985
     39 C         134.1251  140.9062  154.7135 C.ar    1  UNL1        0.0203
     40 C         135.2063  141.7847  154.1573 C.ar    1  UNL1       -0.0015
     41 C         136.6240  141.2962  154.1192 C.ar    1  UNL1       -0.0069
     42 C         137.7052  142.1747  153.5630 C.3     1  UNL1        0.0323
@<TRIPOS>UNITY_ATOM_ATTR
27 1
charge -1
@<TRIPOS>BOND
     1    19    20    1
     2    20    21   ar
     3    21    22   ar
     4    22    26    1
     5    26    27   ar
     6    26    28   ar
     7    22    23   ar
     8    23    24   ar
     9    24    25   ar
    10    25    13    1
    11    13    14   ar
    12    14    15   ar
    13    15    16   ar
    14    16     1    1
    15     1     2   am
    16     2     3    2
    17     2     4   am
    18     4    29    1
    19    29    30   ar
    20    30    31   ar
    21    31    32   ar
    22    32    33   ar
    23    33    34   ar
    24     4     5    1
    25     5     6    1
    26     6     7    1
    27     7     8    1
    28     8    35    1
    29    35    36    1
    30    36    37   ar
    31    37    38   ar
    32    38    39   ar
    33    39    40   ar
    34    40    41   ar
    35    41    42    1
    36     8     9    1
    37     9    10    1
    38     5    11    1
    39    11    12    2
    40    16    17   ar
    41    17    18   ar
    42    25    20   ar
    43    18    13   ar
    44    11     1   am
    45    34    29   ar
    46    10     5    1
    47    41    36   ar
@<TRIPOS>MOLECULE
*****
 42 47 0 0 0
SMALL
GASTEIGER

@<TRIPOS>ATOM
      1 N         139.5069  142.8375  160.5230 N.am    1  UNL1       -0.1907
      2 C         140.1721  143.9819  159.8174 C.2     1  UNL1        0.3219
      3 O         141.0450  145.0224  160.4538 O.2     1  UNL1       -0.2512
      4 N         139.8110  143.9030  158.3637 N.am    1  UNL1       -0.2223
      5 C         138.9226  142.7098  158.1707 C.3     1  UNL1        0.1391
      6 C         138.0487  141.4914  158.1321 C.3     1  UNL1        0.0449
      7 C         137.4529  141.0366  156.8328 C.3     1  UNL1        0.0746
      8 N         137.7311  141.8003  155.5721 N.3     1  UNL1       -0.2676
      9 C         138.6050  143.0188  155.6107 C.3     1  UNL1        0.0746
     10 C         139.2008  143.4735  156.9100 C.3     1  UNL1        0.0449
     11 C         138.7347  142.0513  159.5053 C.2     1  UNL1        0.2529
     12 O         137.9179  140.8223  159.7748 O.2     1  UNL1       -0.2724
     13 C         139.7799  141.9232  164.9207 C.ar    1  UNL1       -0.0002
     14 C         138.5258  142.5212  164.3554 C.ar    1  UNL1        0.0013
     15 C         138.4347  142.8259  162.8895 C.ar    1  UNL1        0.0154
     16 C         139.5979  142.5327  161.9889 C.ar    1  UNL1        0.0622
     17 C         140.8520  141.9348  162.5542 C.ar    1  UNL1        0.0154
     18 C         140.9430  141.6301  164.0200 C.ar    1  UNL1        0.0013
     19 C         138.8231  139.2786  165.9652 C.3     1  UNL1        0.0310
     20 C         139.3926  140.2962  166.9088 C.ar    1  UNL1       -0.0218
     21 C         139.4836  139.9914  168.3747 C.ar    1  UNL1       -0.0031
     22 C         140.0530  141.0090  169.3184 C.ar    1  UNL1        0.0137
     23 C         140.5314  142.3313  168.7961 C.ar    1  UNL1        0.0011
     24 C         140.4404  142.6360  167.3302 C.ar    1  UNL1       -0.0003
     25 C         139.8710  141.6185  166.3865 C.ar    1  UNL1       -0.0040
     26 C         140.1440  140.7042  170.7842 C.2     1  UNL1        0.0729
     27 O         139.5585  139.4329  171.3237 O.co2   1  UNL1       -0.5446
     28 O         140.8205  141.6707  171.7106 O.co2   1  UNL1       -0.5446
     29 C         140.2595  144.8508  157.2911 C.ar    1  UNL1        0.1422
     30 C         141.5454  144.6020  156.5599 C.ar    1  UNL1        0.0554
     31 C         141.9938  145.5499  155.4874 C.ar    1  UNL1        0.1036
     32 N         141.1564  146.7466  155.1459 N.ar    1  UNL1       -0.2223
     33 C         139.8705  146.9955  155.8770 C.ar    1  UNL1        0.2001
     34 N         139.4221  146.0476  156.9496 N.ar    1  UNL1       -0.2086
     35 C         137.1353  141.3455  154.2728 C.3     1  UNL1        0.1183
     36 C         137.4286  139.9689  153.7543 C.ar    1  UNL1        0.0712
     37 N         138.7033  139.7038  153.0094 N.ar    1  UNL1       -0.2471
     38 C         138.9966  138.3271  152.4909 C.ar    1  UNL1        0.0985
     39 C         138.0152  137.2156  152.7173 C.ar    1  UNL1        0.0203
     40 C         136.7405  137.4806  153.4622 C.ar    1  UNL1       -0.0015
     41 C         136.4472  138.8573  153.9807 C.ar    1  UNL1       -0.0069
     42 C         135.1725  139.1223  154.7255 C.3     1  UNL1        0.0323
@<TRIPOS>UNITY_ATOM_ATTR
27 1
charge -1
@<TRIPOS>BOND
     1    19    20    1
     2    20    21   ar
     3    21    22   ar
     4    22    26    1
     5    26    27   ar
     6    26    28   ar
     7    22    23   ar
     8    23    24   ar
     9    24    25   ar
    10    25    13    1
    11    13    14   ar
    12    14    15   ar
    13    15    16   ar
    14    16     1    1
    15     1     2   am
    16     2     3    2
    17     2     4   am
    18     4    29    1
    19    29    30   ar
    20    30    31   ar
    21    31    32   ar
    22    32    33   ar
    23    33    34   ar
    24     4     5    1
    25     5     6    1
    26     6     7    1
    27     7     8    1
    28     8    35    1
    29    35    36    1
    30    36    37   ar
    31    37    38   ar
    32    38    39   ar
    33    39    40   ar
    34    40    41   ar
    35    41    42    1
    36     8     9    1
    37     9    10    1
    38     5    11    1
    39    11    12    2
    40    16    17   ar
    41    17    18   ar
    42    25    20   ar
    43    18    13   ar
    44    11     1   am
    45    34    29   ar
    46    10     5    1
    47    41    36   ar
@<TRIPOS>MOLECULE
*****
 42 47 0 0 0
SMALL
GASTEIGER

@<TRIPOS>ATOM
      1 N         143.1264  140.2307  160.5511 N.am    1  UNL1       -0.1907
      2 C         143.7689  141.2464  159.6534 C.2     1  UNL1        0.3219
      3 O         144.2599  142.6023  160.0658 O.2     1  UNL1       -0.2512
      4 N         143.8340  140.6679  158.2709 N.am    1  UNL1       -0.2223
      5 C         143.2318  139.2947  158.3141 C.3     1  UNL1        0.1391
      6 C         142.6053  137.9461  158.5105 C.3     1  UNL1        0.0449
      7 C         142.4651  137.0079  157.3486 C.3     1  UNL1        0.0746
      8 N         142.9513  137.4184  155.9902 N.3     1  UNL1       -0.2676
      9 C         143.5778  138.7671  155.7938 C.3     1  UNL1        0.0746
     10 C         143.7180  139.7052  156.9558 C.3     1  UNL1        0.0449
     11 C         142.7945  139.0245  159.7233 C.2     1  UNL1        0.2529
     12 O         142.1402  137.7686  160.2179 O.2     1  UNL1       -0.2724
     13 C         142.3341  140.7167  164.9540 C.ar    1  UNL1       -0.0002
     14 C         141.4950  141.4566  163.9547 C.ar    1  UNL1        0.0013
     15 C         141.7591  141.2946  162.4871 C.ar    1  UNL1        0.0154
     16 C         142.8623  140.3927  162.0187 C.ar    1  UNL1        0.0622
     17 C         143.7014  139.6528  163.0179 C.ar    1  UNL1        0.0154
     18 C         143.4372  139.8148  164.4855 C.ar    1  UNL1        0.0013
     19 C         143.7235  142.8813  166.4981 C.3     1  UNL1        0.0310
     20 C         142.7647  141.9610  167.1936 C.ar    1  UNL1       -0.0218
     21 C         142.5005  142.1231  168.6613 C.ar    1  UNL1       -0.0031
     22 C         141.5417  141.2028  169.3569 C.ar    1  UNL1        0.0137
     23 C         140.8470  140.1205  168.5848 C.ar    1  UNL1        0.0011
     24 C         141.1111  139.9585  167.1172 C.ar    1  UNL1       -0.0003
     25 C         142.0700  140.8787  166.4216 C.ar    1  UNL1       -0.0040
     26 C         141.2776  141.3648  170.8246 C.2     1  UNL1        0.0729
     27 O         141.9390  142.4740  171.5876 O.co2   1  UNL1       -0.5446
     28 O         140.3521  140.4177  171.5291 O.co2   1  UNL1       -0.5446
     29 C         144.4016  141.3439  157.0582 C.ar    1  UNL1        0.1422
     30 C         145.8641  141.2233  156.7478 C.ar    1  UNL1        0.0554
     31 C         146.4317  141.8993  155.5350 C.ar    1  UNL1        0.1036
     32 N         145.5367  142.6960  154.6325 N.ar    1  UNL1       -0.2223
     33 C         144.0741  142.8166  154.9429 C.ar    1  UNL1        0.2001
     34 N         143.5066  142.1406  156.1557 N.ar    1  UNL1       -0.2086
     35 C         142.8110  136.4802  154.8283 C.3     1  UNL1        0.1183
     36 C         143.0225  135.0081  155.0232 C.ar    1  UNL1        0.0712
     37 N         143.9250  134.5183  156.1166 N.ar    1  UNL1       -0.2471
     38 C         144.1365  133.0461  156.3115 C.ar    1  UNL1        0.0985
     39 C         143.4454  132.0637  155.4131 C.ar    1  UNL1        0.0203
     40 C         142.5428  132.5535  154.3197 C.ar    1  UNL1       -0.0015
     41 C         142.3313  134.0256  154.1247 C.ar    1  UNL1       -0.0069
     42 C         141.4287  134.5153  153.0313 C.3     1  UNL1        0.0323
@<TRIPOS>UNITY_ATOM_ATTR
27 1
charge -1
@<TRIPOS>BOND
     1    19    20    1
     2    20    21   ar
     3    21    22   ar
     4    22    26    1
     5    26    27   ar
     6    26    28   ar
     7    22    23   ar
     8    23    24   ar
     9    24    25   ar
    10    25    13    1
    11    13    14   ar
    12    14    15   ar
    13    15    16   ar
    14    16     1    1
    15     1     2   am
    16     2     3    2
    17     2     4   am
    18     4    29    1
    19    29    30   ar
    20    30    31   ar
    21    31    32   ar
    22    32    33   ar
    23    33    34   ar
    24     4     5    1
    25     5     6    1
    26     6     7    1
    27     7     8    1
    28     8    35    1
    29    35    36    1
    30    36    37   ar
    31    37    38   ar
    32    38    39   ar
    33    39    40   ar
    34    40    41   ar
    35    41    42    1
    36     8     9    1
    37     9    10    1
    38     5    11    1
    39    11    12    2
    40    16    17   ar
    41    17    18   ar
    42    25    20   ar
    43    18    13   ar
    44    11     1   am
    45    34    29   ar
    46    10     5    1
    47    41    36   ar
@<TRIPOS>MOLECULE
*****
 42 47 0 0 0
SMALL
GASTEIGER

@<TRIPOS>ATOM
      1 N         140.6150  140.0286  160.7207 N.am    1  UNL1       -0.1907
      2 C         141.5506  139.2330  159.8594 C.2     1  UNL1        0.3219
      3 O         142.8856  138.6903  160.2754 O.2     1  UNL1       -0.2512
      4 N         140.9167  139.0755  158.5091 N.am    1  UNL1       -0.2223
      5 C         139.5893  139.7737  158.5358 C.3     1  UNL1        0.1391
      6 C         138.2939  140.5091  158.7117 C.3     1  UNL1        0.0449
      7 C         137.3234  140.6019  157.5717 C.3     1  UNL1        0.0746
      8 N         137.6484  139.9593  156.2559 N.3     1  UNL1       -0.2676
      9 C         138.9438  139.2239  156.0800 C.3     1  UNL1        0.0746
     10 C         139.9143  139.1311  157.2199 C.3     1  UNL1        0.0449
     11 C         139.4029  140.3628  159.9026 C.2     1  UNL1        0.2529
     12 O         138.2132  141.1481  160.3695 O.2     1  UNL1       -0.2724
     13 C         141.3207  141.2062  165.0061 C.ar    1  UNL1       -0.0002
     14 C         142.0648  141.9018  163.9049 C.ar    1  UNL1        0.0013
     15 C         141.8296  141.5092  162.4764 C.ar    1  UNL1        0.0154
     16 C         140.8503  140.4212  162.1492 C.ar    1  UNL1        0.0622
     17 C         140.1063  139.7257  163.2503 C.ar    1  UNL1        0.0154
     18 C         140.3415  140.1182  164.6788 C.ar    1  UNL1        0.0013
     19 C         139.6090  143.3126  166.2843 C.3     1  UNL1        0.0310
     20 C         140.7001  142.6519  167.0736 C.ar    1  UNL1       -0.0218
     21 C         140.9354  143.0445  168.5022 C.ar    1  UNL1       -0.0031
     22 C         142.0264  142.3839  169.2916 C.ar    1  UNL1        0.0137
     23 C         142.8823  141.3307  168.6525 C.ar    1  UNL1        0.0011
     24 C         142.6471  140.9382  167.2240 C.ar    1  UNL1       -0.0003
     25 C         141.5560  141.5988  166.4346 C.ar    1  UNL1       -0.0040
     26 C         142.2617  142.7764  170.7201 C.2     1  UNL1        0.0729
     27 O         141.4642  142.1333  171.8157 O.co2   1  UNL1       -0.5446
     28 O         143.2944  143.8121  171.0530 O.co2   1  UNL1       -0.5446
     29 C         141.5065  138.3475  157.3377 C.ar    1  UNL1        0.1422
     30 C         142.4505  139.0562  156.4122 C.ar    1  UNL1        0.0554
     31 C         143.0403  138.3282  155.2408 C.ar    1  UNL1        0.1036
     32 N         142.6861  136.8915  154.9949 N.ar    1  UNL1       -0.2223
     33 C         141.7421  136.1828  155.9204 C.ar    1  UNL1        0.2001
     34 N         141.1524  136.9108  157.0918 N.ar    1  UNL1       -0.2086
     35 C         136.6778  140.0521  155.1159 C.3     1  UNL1        0.1183
     36 C         135.2171  140.2559  155.3892 C.ar    1  UNL1        0.0712
     37 N         134.5589  139.5329  156.5268 N.ar    1  UNL1       -0.2471
     38 C         133.0981  139.7367  156.8001 C.ar    1  UNL1        0.0985
     39 C         132.2956  140.6635  155.9358 C.ar    1  UNL1        0.0203
     40 C         132.9538  141.3864  154.7982 C.ar    1  UNL1       -0.0015
     41 C         134.4145  141.1827  154.5249 C.ar    1  UNL1       -0.0069
     42 C         135.0726  141.9056  153.3873 C.3     1  UNL1        0.0323
@<TRIPOS>UNITY_ATOM_ATTR
27 1
charge -1
@<TRIPOS>BOND
     1    19    20    1
     2    20    21   ar
     3    21    22   ar
     4    22    26    1
     5    26    27   ar
     6    26    28   ar
     7    22    23   ar
     8    23    24   ar
     9    24    25   ar
    10    25    13    1
    11    13    14   ar
    12    14    15   ar
    13    15    16   ar
    14    16     1    1
    15     1     2   am
    16     2     3    2
    17     2     4   am
    18     4    29    1
    19    29    30   ar
    20    30    31   ar
    21    31    32   ar
    22    32    33   ar
    23    33    34   ar
    24     4     5    1
    25     5     6    1
    26     6     7    1
    27     7     8    1
    28     8    35    1
    29    35    36    1
    30    36    37   ar
    31    37    38   ar
    32    38    39   ar
    33    39    40   ar
    34    40    41   ar
    35    41    42    1
    36     8     9    1
    37     9    10    1
    38     5    11    1
    39    11    12    2
    40    16    17   ar
    41    17    18   ar
    42    25    20   ar
    43    18    13   ar
    44    11     1   am
    45    34    29   ar
    46    10     5    1
    47    41    36   ar
