@<TRIPOS>MOLECULE
*****
 48 50 0 0 0
SMALL
GASTEIGER

@<TRIPOS>ATOM
      1 C         140.1460  141.6863  165.6996 C.3     1  UNL1        0.1152
      2 C         139.6919  140.2616  165.5808 C.ar    1  UNL1        0.0046
      3 C         138.5994  139.7461  166.4701 C.ar    1  UNL1        0.0275
      4 C         138.1452  138.3215  166.3513 C.ar    1  UNL1        0.1429
      5 F         137.0528  137.8060  167.2406 F       1  UNL1       -0.2041
      6 C         138.7835  137.4124  165.3434 C.ar    1  UNL1        0.0667
      7 C         139.8760  137.9279  164.4541 C.ar    1  UNL1        0.1461
      8 C         140.3302  139.3525  164.5728 C.ar    1  UNL1        0.0349
      9 O         140.5143  137.0187  163.4461 O.3     1  UNL1       -0.4263
     10 C         141.1792  137.5950  162.2313 C.3     1  UNL1        0.4723
     11 F         142.5068  137.5278  162.9261 F       1  UNL1       -0.1579
     12 F         139.8516  137.6621  161.5365 F       1  UNL1       -0.1579
     13 C         141.8441  138.1712  161.0165 C.3     1  UNL1        0.4202
     14 F         141.1478  138.1277  159.6886 F       1  UNL1       -0.1876
     15 F         143.2055  138.7910  161.1295 F       1  UNL1       -0.1876
     16 C         140.5407  141.4416  167.1259 C.ar    1  UNL1        0.0792
     17 C         140.0960  142.3892  168.2003 C.ar    1  UNL1        0.0175
     18 C         140.4907  142.1444  169.6266 C.ar    1  UNL1        0.0142
     19 C         141.3300  140.9520  169.9785 C.ar    1  UNL1        0.0768
     20 CL        141.7246  140.7072  171.4048 Cl      1  UNL1       -0.0806
     21 C         141.7746  140.0044  168.9041 C.ar    1  UNL1        0.1098
     22 N         141.3799  140.2491  167.4778 N.ar    1  UNL1       -0.2454
     23 C         138.3886  142.4706  163.9542 C.2     1  UNL1        0.2399
     24 O         137.7589  142.6808  164.3955 O.2     1  UNL1       -0.2736
     25 N         139.7514  141.9311  164.2733 N.am    1  UNL1       -0.2978
     26 H         140.3868  141.7376  163.5466 H       1  UNL1        0.1500
     27 N         137.4307  144.0872  162.3028 N.3     1  UNL1       -0.3126
     28 C         137.9940  142.7154  162.5279 C.3     1  UNL1        0.1699
     29 H         137.4245  144.6010  163.1839 H       1  UNL1        0.1193
     30 H         136.4776  144.0094  161.9479 H       1  UNL1        0.1193
     31 C         138.1816  141.6370  161.5021 C.3     1  UNL1        0.2849
     32 O         137.4930  140.6576  162.4058 O.3     1  UNL1       -0.3715
     33 H         137.2301  141.1039  163.2260 H       1  UNL1        0.2109
     34 C         138.3692  140.5587  160.4765 C.3     1  UNL1        0.4292
     35 F         138.5568  139.4804  159.4508 F       1  UNL1       -0.1672
     36 F         139.8346  140.7797  160.2448 F       1  UNL1       -0.1672
     37 F         136.9157  140.2036  160.5839 F       1  UNL1       -0.1672
     38 C         138.8702  142.6164  160.5985 C.3     1  UNL1        0.4292
     39 F         139.5589  143.5958  159.6948 F       1  UNL1       -0.1672
     40 F         137.8469  142.6042  159.5019 F       1  UNL1       -0.1672
     41 F         140.0616  142.8674  161.4748 F       1  UNL1       -0.1672
     42 C         140.6002  143.1110  165.8184 C.3     1  UNL1        0.0543
     43 C         141.7182  143.6162  164.9554 C.ar    1  UNL1       -0.0199
     44 C         143.0779  142.9892  165.0461 C.ar    1  UNL1       -0.0042
     45 C         144.1958  143.4945  164.1831 C.ar    1  UNL1       -0.0003
     46 C         143.9542  144.6268  163.2294 C.ar    1  UNL1       -0.0000
     47 C         142.5945  145.2537  163.1386 C.ar    1  UNL1       -0.0003
     48 C         141.4766  144.7485  164.0017 C.ar    1  UNL1       -0.0042
@<TRIPOS>BOND
     1    27    28    1
     2    28    23    1
     3    23    24    2
     4    23    25   am
     5    25     1    1
     6     1    42    1
     7    42    43    1
     8    43    44   ar
     9    44    45   ar
    10    45    46   ar
    11    46    47   ar
    12    47    48   ar
    13     1     2    1
    14     2     3   ar
    15     3     4   ar
    16     4     5    1
    17     4     6   ar
    18     6     7   ar
    19     7     9    1
    20     9    10    1
    21    10    11    1
    22    10    12    1
    23    10    13    1
    24    13    14    1
    25    13    15    1
    26     7     8   ar
    27     1    16    1
    28    16    17   ar
    29    17    18   ar
    30    18    19   ar
    31    19    20    1
    32    19    21   ar
    33    21    22   ar
    34    28    31    1
    35    31    32    1
    36    31    34    1
    37    34    35    1
    38    34    36    1
    39    34    37    1
    40    31    38    1
    41    38    39    1
    42    38    40    1
    43    38    41    1
    44    48    43   ar
    45     8     2   ar
    46    22    16   ar
    47    27    29    1
    48    27    30    1
    49    25    26    1
    50    32    33    1
@<TRIPOS>MOLECULE
*****
 48 50 0 0 0
SMALL
GASTEIGER

@<TRIPOS>ATOM
      1 C         140.7484  140.4014  165.6097 C.3     1  UNL1        0.1152
      2 C         142.1521  139.8859  165.4910 C.ar    1  UNL1        0.0046
      3 C         142.6050  138.7398  166.3463 C.ar    1  UNL1        0.0275
      4 C         144.0086  138.2244  166.2277 C.ar    1  UNL1        0.1429
      5 F         144.4615  137.0783  167.0829 F       1  UNL1       -0.2041
      6 C         144.9593  138.8549  165.2538 C.ar    1  UNL1        0.0667
      7 C         144.5064  140.0010  164.3986 C.ar    1  UNL1        0.1461
      8 C         143.1028  140.5165  164.5172 C.ar    1  UNL1        0.0349
      9 O         145.4572  140.6316  163.4247 O.3     1  UNL1       -0.4263
     10 C         145.0304  141.8285  162.6278 C.3     1  UNL1        0.4723
     11 F         145.4747  142.7289  163.7422 F       1  UNL1       -0.1579
     12 F         144.5862  140.9282  161.5134 F       1  UNL1       -0.1579
     13 C         144.6036  143.0255  161.8309 C.3     1  UNL1        0.4202
     14 F         144.6074  144.3865  162.4614 F       1  UNL1       -0.1876
     15 F         144.1729  142.8614  160.4034 F       1  UNL1       -0.1876
     16 C         141.0065  140.7749  167.0393 C.ar    1  UNL1        0.0792
     17 C         141.9896  141.8598  167.3653 C.ar    1  UNL1        0.0175
     18 C         142.2477  142.2333  168.7950 C.ar    1  UNL1        0.0142
     19 C         141.5226  141.5218  169.8987 C.ar    1  UNL1        0.0768
     20 CL        141.7806  141.8953  171.3284 Cl      1  UNL1       -0.0806
     21 C         140.5394  140.4369  169.5726 C.ar    1  UNL1        0.1098
     22 N         140.2814  140.0634  168.1430 N.ar    1  UNL1       -0.2454
     23 C         139.9235  138.6794  163.8478 C.2     1  UNL1        0.2399
     24 O         139.7031  138.0488  164.2828 O.2     1  UNL1       -0.2736
     25 N         140.4904  140.0279  164.1801 N.am    1  UNL1       -0.2978
     26 H         140.6930  140.6677  163.4599 H       1  UNL1        0.1500
     27 N         138.3488  137.6148  162.2214 N.3     1  UNL1       -0.3126
     28 C         139.6655  138.3059  162.4181 C.3     1  UNL1        0.1699
     29 H         137.8717  137.5302  163.1190 H       1  UNL1        0.1193
     30 H         138.5074  136.6856  161.8318 H       1  UNL1        0.1193
     31 C         140.6804  138.6320  161.3628 C.3     1  UNL1        0.2849
     32 O         141.7729  138.1243  162.2566 O.3     1  UNL1       -0.3715
     33 H         141.3896  137.8161  163.0926 H       1  UNL1        0.2109
     34 C         141.6952  138.9581  160.3075 C.3     1  UNL1        0.4292
     35 F         142.7101  139.2842  159.2523 F       1  UNL1       -0.1672
     36 F         141.2986  140.3910  160.1091 F       1  UNL1       -0.1672
     37 F         142.2195  137.5544  160.3779 F       1  UNL1       -0.1672
     38 C         139.5879  139.1397  160.4690 C.3     1  UNL1        0.4292
     39 F         138.4954  139.6474  159.5753 F       1  UNL1       -0.1672
     40 F         139.7046  138.0777  159.4163 F       1  UNL1       -0.1672
     41 F         139.2049  140.3256  161.3040 F       1  UNL1       -0.1672
     42 C         139.3448  140.9168  165.7284 C.3     1  UNL1        0.0543
     43 C         138.9206  142.1244  164.9461 C.ar    1  UNL1       -0.0199
     44 C         139.4869  143.4722  165.2815 C.ar    1  UNL1       -0.0042
     45 C         139.0626  144.6797  164.4993 C.ar    1  UNL1       -0.0003
     46 C         138.0721  144.5393  163.3816 C.ar    1  UNL1       -0.0000
     47 C         137.5058  143.1915  163.0462 C.ar    1  UNL1       -0.0003
     48 C         137.9301  141.9840  163.8285 C.ar    1  UNL1       -0.0042
@<TRIPOS>BOND
     1    27    28    1
     2    28    23    1
     3    23    24    2
     4    23    25   am
     5    25     1    1
     6     1    42    1
     7    42    43    1
     8    43    44   ar
     9    44    45   ar
    10    45    46   ar
    11    46    47   ar
    12    47    48   ar
    13     1     2    1
    14     2     3   ar
    15     3     4   ar
    16     4     5    1
    17     4     6   ar
    18     6     7   ar
    19     7     9    1
    20     9    10    1
    21    10    11    1
    22    10    12    1
    23    10    13    1
    24    13    14    1
    25    13    15    1
    26     7     8   ar
    27     1    16    1
    28    16    17   ar
    29    17    18   ar
    30    18    19   ar
    31    19    20    1
    32    19    21   ar
    33    21    22   ar
    34    28    31    1
    35    31    32    1
    36    31    34    1
    37    34    35    1
    38    34    36    1
    39    34    37    1
    40    31    38    1
    41    38    39    1
    42    38    40    1
    43    38    41    1
    44    48    43   ar
    45     8     2   ar
    46    22    16   ar
    47    27    29    1
    48    27    30    1
    49    25    26    1
    50    32    33    1
@<TRIPOS>MOLECULE
*****
 48 50 0 0 0
SMALL
GASTEIGER

@<TRIPOS>ATOM
      1 C         140.6278  140.2235  165.4404 C.3     1  UNL1        0.1152
      2 C         142.0578  139.7705  165.4406 C.ar    1  UNL1        0.0046
      3 C         142.4697  138.5878  166.2660 C.ar    1  UNL1        0.0275
      4 C         143.8996  138.1348  166.2663 C.ar    1  UNL1        0.1429
      5 F         144.3116  136.9520  167.0918 F       1  UNL1       -0.2041
      6 C         144.9177  138.8646  165.4411 C.ar    1  UNL1        0.0667
      7 C         144.5058  140.0474  164.6157 C.ar    1  UNL1        0.1461
      8 C         143.0758  140.5003  164.6154 C.ar    1  UNL1        0.0349
      9 O         145.5239  140.7772  163.7905 O.3     1  UNL1       -0.4263
     10 C         145.1107  141.9556  162.9596 C.3     1  UNL1        0.4723
     11 F         144.8649  141.0463  161.7922 F       1  UNL1       -0.1579
     12 F         145.3565  142.8649  164.1269 F       1  UNL1       -0.1579
     13 C         144.6975  143.1341  162.1286 C.3     1  UNL1        0.4202
     14 F         144.5602  142.9921  160.6417 F       1  UNL1       -0.1876
     15 F         144.4215  144.4545  162.7847 F       1  UNL1       -0.1876
     16 C         140.4782  139.7503  164.0249 C.ar    1  UNL1        0.0792
     17 C         139.8681  138.4093  163.7429 C.ar    1  UNL1        0.0175
     18 C         139.7185  137.9361  162.3273 C.ar    1  UNL1        0.0142
     19 C         140.1790  138.8039  161.1938 C.ar    1  UNL1        0.0768
     20 CL        140.0294  138.3307  159.7782 Cl      1  UNL1       -0.0806
     21 C         140.7891  140.1449  161.4758 C.ar    1  UNL1        0.1098
     22 N         140.9387  140.6181  162.8913 N.ar    1  UNL1       -0.2454
     23 C         139.9747  140.0565  167.9495 C.2     1  UNL1        0.2399
     24 O         139.4352  139.4699  167.9698 O.2     1  UNL1       -0.2736
     25 N         140.7774  140.6967  166.8558 N.am    1  UNL1       -0.2978
     26 H         141.4023  141.4275  167.0671 H       1  UNL1        0.1500
     27 N         138.9928  140.0981  170.2500 N.3     1  UNL1       -0.3126
     28 C         140.1243  140.5297  169.3650 C.3     1  UNL1        0.1699
     29 H         138.3241  139.5532  169.7055 H       1  UNL1        0.1193
     30 H         138.5283  140.9211  170.6337 H       1  UNL1        0.1193
     31 C         141.3188  141.3464  169.7605 C.3     1  UNL1        0.2849
     32 O         142.2260  140.2848  169.2127 O.3     1  UNL1       -0.3715
     33 H         141.6934  139.5581  168.8534 H       1  UNL1        0.2109
     34 C         142.5132  142.1630  170.1560 C.3     1  UNL1        0.4292
     35 F         143.7076  142.9796  170.5515 F       1  UNL1       -0.1672
     36 F         142.0181  143.4776  169.6303 F       1  UNL1       -0.1672
     37 F         143.1588  140.9387  170.7344 F       1  UNL1       -0.1672
     38 C         140.4116  142.4079  170.3084 C.3     1  UNL1        0.4292
     39 F         139.5044  143.4695  170.8562 F       1  UNL1       -0.1672
     40 F         140.7105  142.1729  171.7593 F       1  UNL1       -0.1672
     41 F         139.8916  142.9017  168.9908 F       1  UNL1       -0.1672
     42 C         139.1978  140.6764  165.4401 C.3     1  UNL1        0.0543
     43 C         138.8359  142.0172  164.8732 C.ar    1  UNL1       -0.0199
     44 C         137.8420  142.1149  163.7540 C.ar    1  UNL1       -0.0042
     45 C         137.4801  143.4556  163.1872 C.ar    1  UNL1       -0.0003
     46 C         138.1121  144.6988  163.7396 C.ar    1  UNL1       -0.0000
     47 C         139.1059  144.6012  164.8588 C.ar    1  UNL1       -0.0003
     48 C         139.4678  143.2604  165.4256 C.ar    1  UNL1       -0.0042
@<TRIPOS>BOND
     1    27    28    1
     2    28    23    1
     3    23    24    2
     4    23    25   am
     5    25     1    1
     6     1    42    1
     7    42    43    1
     8    43    44   ar
     9    44    45   ar
    10    45    46   ar
    11    46    47   ar
    12    47    48   ar
    13     1     2    1
    14     2     3   ar
    15     3     4   ar
    16     4     5    1
    17     4     6   ar
    18     6     7   ar
    19     7     9    1
    20     9    10    1
    21    10    11    1
    22    10    12    1
    23    10    13    1
    24    13    14    1
    25    13    15    1
    26     7     8   ar
    27     1    16    1
    28    16    17   ar
    29    17    18   ar
    30    18    19   ar
    31    19    20    1
    32    19    21   ar
    33    21    22   ar
    34    28    31    1
    35    31    32    1
    36    31    34    1
    37    34    35    1
    38    34    36    1
    39    34    37    1
    40    31    38    1
    41    38    39    1
    42    38    40    1
    43    38    41    1
    44    48    43   ar
    45     8     2   ar
    46    22    16   ar
    47    27    29    1
    48    27    30    1
    49    25    26    1
    50    32    33    1
@<TRIPOS>MOLECULE
*****
 48 50 0 0 0
SMALL
GASTEIGER

@<TRIPOS>ATOM
      1 C         140.8420  140.3523  165.6770 C.3     1  UNL1        0.1152
      2 C         142.2577  139.8644  165.5874 C.ar    1  UNL1        0.0046
      3 C         142.7029  138.6977  166.4184 C.ar    1  UNL1        0.0275
      4 C         144.1185  138.2098  166.3289 C.ar    1  UNL1        0.1429
      5 F         144.5637  137.0431  167.1599 F       1  UNL1       -0.2041
      6 C         145.0889  138.8887  165.4083 C.ar    1  UNL1        0.0667
      7 C         144.6437  140.0554  164.5773 C.ar    1  UNL1        0.1461
      8 C         143.2281  140.5433  164.6669 C.ar    1  UNL1        0.0349
      9 O         145.6142  140.7343  163.6568 O.3     1  UNL1       -0.4263
     10 C         145.1680  141.8986  162.8230 C.3     1  UNL1        0.4723
     11 F         145.5086  142.8332  163.9458 F       1  UNL1       -0.1579
     12 F         144.8275  140.9641  161.7002 F       1  UNL1       -0.1579
     13 C         144.7219  143.0630  161.9892 C.3     1  UNL1        0.4202
     14 F         144.6022  142.9177  160.5011 F       1  UNL1       -0.1876
     15 F         144.3954  144.3727  162.6436 F       1  UNL1       -0.1876
     16 C         141.0633  140.7309  167.1114 C.ar    1  UNL1        0.0792
     17 C         140.2622  140.0700  168.1937 C.ar    1  UNL1        0.0175
     18 C         140.4835  140.4486  169.6282 C.ar    1  UNL1        0.0142
     19 C         141.5059  141.4881  169.9804 C.ar    1  UNL1        0.0768
     20 CL        141.7273  141.8668  171.4149 Cl      1  UNL1       -0.0806
     21 C         142.3071  142.1490  168.8981 C.ar    1  UNL1        0.1098
     22 N         142.0858  141.7704  167.4636 N.ar    1  UNL1       -0.2454
     23 C         140.3957  138.5377  163.8720 C.2     1  UNL1        0.2399
     24 O         140.3607  137.8577  164.2866 O.2     1  UNL1       -0.2736
     25 N         140.6207  139.9737  164.2426 N.am    1  UNL1       -0.2978
     26 H         140.6232  140.6677  163.5443 H       1  UNL1        0.1500
     27 N         141.2105  137.2081  161.9158 N.3     1  UNL1       -0.3126
     28 C         140.1744  138.1591  162.4376 C.3     1  UNL1        0.1699
     29 H         141.8814  136.9974  162.6547 H       1  UNL1        0.1193
     30 H         141.6964  137.6341  161.1267 H       1  UNL1        0.1193
     31 C         139.0077  138.7253  161.6838 C.3     1  UNL1        0.2849
     32 O         138.1339  138.5260  162.8867 O.3     1  UNL1       -0.3715
     33 H         138.6569  138.1378  163.6055 H       1  UNL1        0.2109
     34 C         137.8409  139.2915  160.9301 C.3     1  UNL1        0.4292
     35 F         136.6742  139.8577  160.1764 F       1  UNL1       -0.1672
     36 F         138.5326  140.5203  160.4187 F       1  UNL1       -0.1672
     37 F         137.0007  138.1230  161.3528 F       1  UNL1       -0.1672
     38 C         139.8814  138.9246  160.4810 C.3     1  UNL1        0.4292
     39 F         140.7551  139.1239  159.2781 F       1  UNL1       -0.1672
     40 F         140.7529  139.9973  161.0637 F       1  UNL1       -0.1672
     41 F         139.2229  137.9004  159.6049 F       1  UNL1       -0.1672
     42 C         139.4264  140.8401  165.7666 C.3     1  UNL1        0.0543
     43 C         139.0009  142.0534  164.9939 C.ar    1  UNL1       -0.0199
     44 C         138.0518  141.9134  163.8409 C.ar    1  UNL1       -0.0042
     45 C         137.6263  143.1267  163.0683 C.ar    1  UNL1       -0.0003
     46 C         138.1499  144.4799  163.4487 C.ar    1  UNL1       -0.0000
     47 C         139.0990  144.6198  164.6018 C.ar    1  UNL1       -0.0003
     48 C         139.5245  143.4066  165.3744 C.ar    1  UNL1       -0.0042
@<TRIPOS>BOND
     1    27    28    1
     2    28    23    1
     3    23    24    2
     4    23    25   am
     5    25     1    1
     6     1    42    1
     7    42    43    1
     8    43    44   ar
     9    44    45   ar
    10    45    46   ar
    11    46    47   ar
    12    47    48   ar
    13     1     2    1
    14     2     3   ar
    15     3     4   ar
    16     4     5    1
    17     4     6   ar
    18     6     7   ar
    19     7     9    1
    20     9    10    1
    21    10    11    1
    22    10    12    1
    23    10    13    1
    24    13    14    1
    25    13    15    1
    26     7     8   ar
    27     1    16    1
    28    16    17   ar
    29    17    18   ar
    30    18    19   ar
    31    19    20    1
    32    19    21   ar
    33    21    22   ar
    34    28    31    1
    35    31    32    1
    36    31    34    1
    37    34    35    1
    38    34    36    1
    39    34    37    1
    40    31    38    1
    41    38    39    1
    42    38    40    1
    43    38    41    1
    44    48    43   ar
    45     8     2   ar
    46    22    16   ar
    47    27    29    1
    48    27    30    1
    49    25    26    1
    50    32    33    1
@<TRIPOS>MOLECULE
*****
 48 50 0 0 0
SMALL
GASTEIGER

@<TRIPOS>ATOM
      1 C         140.6078  142.3763  160.3876 C.3     1  UNL1        0.1152
      2 C         141.2823  141.0993  159.9820 C.ar    1  UNL1        0.0046
      3 C         142.0341  141.0271  158.6860 C.ar    1  UNL1        0.0275
      4 C         142.7086  139.7502  158.2804 C.ar    1  UNL1        0.1429
      5 F         143.4604  139.6779  156.9844 F       1  UNL1       -0.2041
      6 C         142.6314  138.5456  159.1708 C.ar    1  UNL1        0.0667
      7 C         141.8796  138.6178  160.4668 C.ar    1  UNL1        0.1461
      8 C         141.2051  139.8947  160.8724 C.ar    1  UNL1        0.0349
      9 O         141.8024  137.4131  161.3572 O.3     1  UNL1       -0.4263
     10 C         141.6454  137.5846  162.8391 C.3     1  UNL1        0.4723
     11 F         143.0920  137.9657  162.9483 F       1  UNL1       -0.1579
     12 F         140.1988  137.2035  162.7299 F       1  UNL1       -0.1579
     13 C         141.4884  137.7560  164.3209 C.3     1  UNL1        0.4202
     14 F         142.6821  138.0813  165.1690 F       1  UNL1       -0.1876
     15 F         140.1375  137.6023  164.9548 F       1  UNL1       -0.1876
     16 C         139.6169  142.2063  159.2744 C.ar    1  UNL1        0.0792
     17 C         139.5209  143.2398  158.1915 C.ar    1  UNL1        0.0175
     18 C         138.5299  143.0698  157.0783 C.ar    1  UNL1        0.0142
     19 C         137.6350  141.8664  157.0480 C.ar    1  UNL1        0.0768
     20 CL        136.6441  141.6964  155.9348 Cl      1  UNL1       -0.0806
     21 C         137.7310  140.8329  158.1310 C.ar    1  UNL1        0.1098
     22 N         138.7219  141.0029  159.2441 N.ar    1  UNL1       -0.2454
     23 C         142.7519  143.4921  161.3405 C.2     1  UNL1        0.2399
     24 O         142.9947  143.9750  160.7545 O.2     1  UNL1       -0.2736
     25 N         141.5987  142.5462  161.5007 N.am    1  UNL1       -0.2978
     26 H         141.4922  142.0370  162.3366 H       1  UNL1        0.1500
     27 N         144.0306  145.1003  162.7677 N.3     1  UNL1       -0.3126
     28 C         143.7428  143.6620  162.4536 C.3     1  UNL1        0.1699
     29 H         143.4840  145.6993  162.1490 H       1  UNL1        0.1193
     30 H         145.0241  145.2860  162.6303 H       1  UNL1        0.1193
     31 C         144.3318  142.4563  163.1241 C.3     1  UNL1        0.2849
     32 O         144.7060  141.8943  161.7846 O.3     1  UNL1       -0.3715
     33 H         144.4276  142.5083  161.0871 H       1  UNL1        0.2109
     34 C         144.9208  141.2506  163.7944 C.3     1  UNL1        0.4292
     35 F         145.5098  140.0450  164.4647 F       1  UNL1       -0.1672
     36 F         143.6543  140.7572  164.4287 F       1  UNL1       -0.1672
     37 F         146.2692  141.5997  163.2376 F       1  UNL1       -0.1672
     38 C         143.9576  143.0182  164.4635 C.3     1  UNL1        0.4292
     39 F         143.5833  143.5802  165.8030 F       1  UNL1       -0.1672
     40 F         145.3528  143.1834  164.9888 F       1  UNL1       -0.1672
     41 F         142.4710  142.9900  164.2648 F       1  UNL1       -0.1672
     42 C         139.9332  143.6532  160.7931 C.3     1  UNL1        0.0543
     43 C         139.2556  143.7524  162.1277 C.ar    1  UNL1       -0.0199
     44 C         139.6954  144.7908  163.1167 C.ar    1  UNL1       -0.0042
     45 C         139.0178  144.8900  164.4512 C.ar    1  UNL1       -0.0003
     46 C         137.9004  143.9509  164.7967 C.ar    1  UNL1       -0.0000
     47 C         137.4606  142.9125  163.8077 C.ar    1  UNL1       -0.0003
     48 C         138.1382  142.8133  162.4732 C.ar    1  UNL1       -0.0042
@<TRIPOS>BOND
     1    27    28    1
     2    28    23    1
     3    23    24    2
     4    23    25   am
     5    25     1    1
     6     1    42    1
     7    42    43    1
     8    43    44   ar
     9    44    45   ar
    10    45    46   ar
    11    46    47   ar
    12    47    48   ar
    13     1     2    1
    14     2     3   ar
    15     3     4   ar
    16     4     5    1
    17     4     6   ar
    18     6     7   ar
    19     7     9    1
    20     9    10    1
    21    10    11    1
    22    10    12    1
    23    10    13    1
    24    13    14    1
    25    13    15    1
    26     7     8   ar
    27     1    16    1
    28    16    17   ar
    29    17    18   ar
    30    18    19   ar
    31    19    20    1
    32    19    21   ar
    33    21    22   ar
    34    28    31    1
    35    31    32    1
    36    31    34    1
    37    34    35    1
    38    34    36    1
    39    34    37    1
    40    31    38    1
    41    38    39    1
    42    38    40    1
    43    38    41    1
    44    48    43   ar
    45     8     2   ar
    46    22    16   ar
    47    27    29    1
    48    27    30    1
    49    25    26    1
    50    32    33    1
@<TRIPOS>MOLECULE
*****
 48 50 0 0 0
SMALL
GASTEIGER

@<TRIPOS>ATOM
      1 C         140.5371  140.2609  160.2584 C.3     1  UNL1        0.1152
      2 C         141.6213  141.1484  159.7225 C.ar    1  UNL1        0.0046
      3 C         141.5475  141.6548  158.3125 C.ar    1  UNL1        0.0275
      4 C         142.6315  142.5422  157.7765 C.ar    1  UNL1        0.1429
      5 F         142.5577  143.0486  156.3665 F       1  UNL1       -0.2041
      6 C         143.7894  142.9231  158.6506 C.ar    1  UNL1        0.0667
      7 C         143.8633  142.4167  160.0606 C.ar    1  UNL1        0.1461
      8 C         142.7792  141.5293  160.5965 C.ar    1  UNL1        0.0349
      9 O         145.0213  142.7978  160.9347 O.3     1  UNL1       -0.4263
     10 C         144.8748  142.7716  162.4272 C.3     1  UNL1        0.4723
     11 F         145.5609  141.4385  162.4712 F       1  UNL1       -0.1579
     12 F         144.1887  144.1048  162.3832 F       1  UNL1       -0.1579
     13 C         144.7283  142.7455  163.9198 C.3     1  UNL1        0.4202
     14 F         144.7583  141.4375  164.6535 F       1  UNL1       -0.1876
     15 F         144.5519  144.0273  164.6787 F       1  UNL1       -0.1876
     16 C         140.8495  139.2420  159.2029 C.ar    1  UNL1        0.0792
     17 C         139.7853  138.8122  158.2370 C.ar    1  UNL1        0.0175
     18 C         140.0978  137.7932  157.1815 C.ar    1  UNL1        0.0142
     19 C         141.4743  137.2041  157.0918 C.ar    1  UNL1        0.0768
     20 CL        141.7867  136.1851  156.0362 Cl      1  UNL1       -0.0806
     21 C         142.5384  137.6339  158.0576 C.ar    1  UNL1        0.1098
     22 N         142.2261  138.6528  159.1131 N.ar    1  UNL1       -0.2454
     23 C         139.1829  142.3285  161.0591 C.2     1  UNL1        0.2399
     24 O         138.7062  142.4973  160.4429 O.2     1  UNL1       -0.2736
     25 N         140.2248  141.2798  161.3139 N.am    1  UNL1       -0.2978
     26 H         140.7036  141.2604  162.1739 H       1  UNL1        0.1500
     27 N         137.4001  143.4906  162.3742 N.3     1  UNL1       -0.3126
     28 C         138.8705  143.3474  162.1146 C.3     1  UNL1        0.1699
     29 H         136.8842  142.8523  161.7685 H       1  UNL1        0.1193
     30 H         137.1126  144.4499  162.1808 H       1  UNL1        0.1193
     31 C         139.9830  144.0968  162.7863 C.3     1  UNL1        0.2849
     32 O         140.6250  144.3392  161.4524 O.3     1  UNL1       -0.3715
     33 H         140.0852  143.9346  160.7554 H       1  UNL1        0.2109
     34 C         141.0953  144.8462  163.4578 C.3     1  UNL1        0.4292
     35 F         142.2077  145.5955  164.1294 F       1  UNL1       -0.1672
     36 F         141.4998  143.7592  164.4090 F       1  UNL1       -0.1672
     37 F         140.8244  146.0334  162.5819 F       1  UNL1       -0.1672
     38 C         139.3410  143.8544  164.1201 C.3     1  UNL1        0.4292
     39 F         138.6990  143.6121  165.4540 F       1  UNL1       -0.1672
     40 F         139.5071  142.3638  164.1348 F       1  UNL1       -0.1672
     41 F         139.0183  145.2861  164.4306 F       1  UNL1       -0.1672
     42 C         139.4531  139.3735  160.7942 C.3     1  UNL1        0.0543
     43 C         139.6167  138.7130  162.1311 C.ar    1  UNL1       -0.0199
     44 C         140.8091  137.8426  162.3966 C.ar    1  UNL1       -0.0042
     45 C         140.9727  137.1822  163.7334 C.ar    1  UNL1       -0.0003
     46 C         139.9440  137.3923  164.8047 C.ar    1  UNL1       -0.0000
     47 C         138.7516  138.2627  164.5391 C.ar    1  UNL1       -0.0003
     48 C         138.5880  138.9231  163.2024 C.ar    1  UNL1       -0.0042
@<TRIPOS>BOND
     1    27    28    1
     2    28    23    1
     3    23    24    2
     4    23    25   am
     5    25     1    1
     6     1    42    1
     7    42    43    1
     8    43    44   ar
     9    44    45   ar
    10    45    46   ar
    11    46    47   ar
    12    47    48   ar
    13     1     2    1
    14     2     3   ar
    15     3     4   ar
    16     4     5    1
    17     4     6   ar
    18     6     7   ar
    19     7     9    1
    20     9    10    1
    21    10    11    1
    22    10    12    1
    23    10    13    1
    24    13    14    1
    25    13    15    1
    26     7     8   ar
    27     1    16    1
    28    16    17   ar
    29    17    18   ar
    30    18    19   ar
    31    19    20    1
    32    19    21   ar
    33    21    22   ar
    34    28    31    1
    35    31    32    1
    36    31    34    1
    37    34    35    1
    38    34    36    1
    39    34    37    1
    40    31    38    1
    41    38    39    1
    42    38    40    1
    43    38    41    1
    44    48    43   ar
    45     8     2   ar
    46    22    16   ar
    47    27    29    1
    48    27    30    1
    49    25    26    1
    50    32    33    1
@<TRIPOS>MOLECULE
*****
 48 50 0 0 0
SMALL
GASTEIGER

@<TRIPOS>ATOM
      1 C         140.8573  141.5900  165.3276 C.3     1  UNL1        0.1152
      2 C         142.2682  141.9013  164.9244 C.ar    1  UNL1        0.0046
      3 C         143.0271  142.9872  165.6279 C.ar    1  UNL1        0.0275
      4 C         144.4379  143.2985  165.2247 C.ar    1  UNL1        0.1429
      5 F         145.1968  144.3843  165.9282 F       1  UNL1       -0.2041
      6 C         145.0899  142.5239  164.1180 C.ar    1  UNL1        0.0667
      7 C         144.3310  141.4380  163.4144 C.ar    1  UNL1        0.1461
      8 C         142.9201  141.1267  163.8176 C.ar    1  UNL1        0.0349
      9 O         144.9830  140.6634  162.3076 O.3     1  UNL1       -0.4263
     10 C         144.1421  139.8776  161.3457 C.3     1  UNL1        0.4723
     11 F         144.3885  138.6335  162.1465 F       1  UNL1       -0.1579
     12 F         143.8957  141.1218  160.5449 F       1  UNL1       -0.1579
     13 C         143.3011  139.0919  160.3837 C.3     1  UNL1        0.4202
     14 F         142.4000  139.8049  159.4196 F       1  UNL1       -0.1876
     15 F         143.3613  137.5930  160.3859 F       1  UNL1       -0.1876
     16 C         141.3495  141.0638  166.6432 C.ar    1  UNL1        0.0792
     17 C         142.2359  139.8544  166.6829 C.ar    1  UNL1        0.0175
     18 C         142.7281  139.3281  167.9986 C.ar    1  UNL1        0.0142
     19 C         142.3338  140.0112  169.2744 C.ar    1  UNL1        0.0768
     20 CL        142.8260  139.4849  170.5901 Cl      1  UNL1       -0.0806
     21 C         141.4474  141.2206  169.2347 C.ar    1  UNL1        0.1098
     22 N         140.9552  141.7469  167.9192 N.ar    1  UNL1       -0.2454
     23 C         139.6555  143.4365  163.9505 C.2     1  UNL1        0.2399
     24 O         139.4541  143.9829  164.4949 O.2     1  UNL1       -0.2736
     25 N         140.3651  142.1163  164.0121 N.am    1  UNL1       -0.2978
     26 H         140.5078  141.5953  163.1890 H       1  UNL1        0.1500
     27 N         137.7013  144.2979  162.6477 N.3     1  UNL1       -0.3126
     28 C         139.1633  143.9628  162.6350 C.3     1  UNL1        0.1699
     29 H         137.3148  144.0986  163.5704 H       1  UNL1        0.1193
     30 H         137.2175  143.7356  161.9477 H       1  UNL1        0.1193
     31 C         140.1118  144.1041  161.4815 C.3     1  UNL1        0.2849
     32 O         139.2702  143.1608  160.6739 O.3     1  UNL1       -0.3715
     33 H         138.5106  142.8714  161.2031 H       1  UNL1        0.2109
     34 C         141.0602  144.2453  160.3280 C.3     1  UNL1        0.4292
     35 F         142.0086  144.3866  159.1746 F       1  UNL1       -0.1672
     36 F         140.9705  145.7370  160.1992 F       1  UNL1       -0.1672
     37 F         141.2671  142.7597  160.3161 F       1  UNL1       -0.1672
     38 C         140.9534  145.0472  162.2890 C.3     1  UNL1        0.4292
     39 F         141.7951  145.9905  163.0965 F       1  UNL1       -0.1672
     40 F         139.9427  146.1506  162.3932 F       1  UNL1       -0.1672
     41 F         142.1694  144.1737  162.3816 F       1  UNL1       -0.1672
     42 C         139.4465  141.2788  165.7309 C.3     1  UNL1        0.0543
     43 C         138.9776  139.8548  165.7811 C.ar    1  UNL1       -0.0199
     44 C         138.1082  139.3909  166.9120 C.ar    1  UNL1       -0.0042
     45 C         137.6394  137.9670  166.9622 C.ar    1  UNL1       -0.0003
     46 C         138.0399  137.0069  165.8815 C.ar    1  UNL1       -0.0000
     47 C         138.9093  137.4708  164.7506 C.ar    1  UNL1       -0.0003
     48 C         139.3781  138.8947  164.7004 C.ar    1  UNL1       -0.0042
@<TRIPOS>BOND
     1    27    28    1
     2    28    23    1
     3    23    24    2
     4    23    25   am
     5    25     1    1
     6     1    42    1
     7    42    43    1
     8    43    44   ar
     9    44    45   ar
    10    45    46   ar
    11    46    47   ar
    12    47    48   ar
    13     1     2    1
    14     2     3   ar
    15     3     4   ar
    16     4     5    1
    17     4     6   ar
    18     6     7   ar
    19     7     9    1
    20     9    10    1
    21    10    11    1
    22    10    12    1
    23    10    13    1
    24    13    14    1
    25    13    15    1
    26     7     8   ar
    27     1    16    1
    28    16    17   ar
    29    17    18   ar
    30    18    19   ar
    31    19    20    1
    32    19    21   ar
    33    21    22   ar
    34    28    31    1
    35    31    32    1
    36    31    34    1
    37    34    35    1
    38    34    36    1
    39    34    37    1
    40    31    38    1
    41    38    39    1
    42    38    40    1
    43    38    41    1
    44    48    43   ar
    45     8     2   ar
    46    22    16   ar
    47    27    29    1
    48    27    30    1
    49    25    26    1
    50    32    33    1
@<TRIPOS>MOLECULE
*****
 48 50 0 0 0
SMALL
GASTEIGER

@<TRIPOS>ATOM
      1 C         142.4321  140.2567  160.6274 C.3     1  UNL1        0.1152
      2 C         141.9127  141.4803  159.9322 C.ar    1  UNL1        0.0046
      3 C         142.4453  141.8586  158.5819 C.ar    1  UNL1        0.0275
      4 C         141.9260  143.0820  157.8867 C.ar    1  UNL1        0.1429
      5 F         142.4586  143.4603  156.5364 F       1  UNL1       -0.2041
      6 C         140.8741  143.9272  158.5417 C.ar    1  UNL1        0.0667
      7 C         140.3415  143.5489  159.8920 C.ar    1  UNL1        0.1461
      8 C         140.8608  142.3254  160.5873 C.ar    1  UNL1        0.0349
      9 O         139.2896  144.3942  160.5471 O.3     1  UNL1       -0.4263
     10 C         139.0702  144.3043  162.0282 C.3     1  UNL1        0.4723
     11 F         140.2305  145.2271  162.2560 F       1  UNL1       -0.1579
     12 F         137.9098  143.3815  161.8004 F       1  UNL1       -0.1579
     13 C         138.8508  144.2145  163.5093 C.3     1  UNL1        0.4202
     14 F         138.0445  143.0862  164.0810 F       1  UNL1       -0.1876
     15 F         139.4378  145.2529  164.4188 F       1  UNL1       -0.1876
     16 C         141.9882  139.4111  159.4708 C.ar    1  UNL1        0.0792
     17 C         142.9962  138.6253  158.6857 C.ar    1  UNL1        0.0175
     18 C         142.5522  137.7797  157.5290 C.ar    1  UNL1        0.0142
     19 C         141.1002  137.7199  157.1575 C.ar    1  UNL1        0.0768
     20 CL        140.6562  136.8743  156.0008 Cl      1  UNL1       -0.0806
     21 C         140.0922  138.5057  157.9425 C.ar    1  UNL1        0.1098
     22 N         140.5361  139.3513  159.0992 N.ar    1  UNL1       -0.2454
     23 C         144.3182  141.4928  161.9177 C.2     1  UNL1        0.2399
     24 O         144.9730  141.3499  161.4860 O.2     1  UNL1       -0.2736
     25 N         142.8761  141.1023  161.7841 N.am    1  UNL1       -0.2978
     26 H         142.2209  141.4010  162.4555 H       1  UNL1        0.1500
     27 N         146.0157  141.8316  163.7238 N.3     1  UNL1       -0.3126
     28 C         144.7621  142.3384  163.0744 C.3     1  UNL1        0.1699
     29 H         146.3318  140.9899  163.2422 H       1  UNL1        0.1193
     30 H         145.8273  141.6131  164.7022 H       1  UNL1        0.1193
     31 C         143.9679  143.5489  163.4669 C.3     1  UNL1        0.2849
     32 O         143.9316  143.9899  162.0336 O.3     1  UNL1       -0.3715
     33 H         144.4080  143.3469  161.4853 H       1  UNL1        0.2109
     34 C         143.1737  144.7593  163.8594 C.3     1  UNL1        0.4292
     35 F         142.3796  145.9697  164.2519 F       1  UNL1       -0.1672
     36 F         142.0892  144.0342  164.5996 F       1  UNL1       -0.1672
     37 F         144.1690  145.6385  163.1618 F       1  UNL1       -0.1672
     38 C         144.0042  143.1080  164.9002 C.3     1  UNL1        0.4292
     39 F         144.0405  142.6671  166.3335 F       1  UNL1       -0.1672
     40 F         143.1912  141.8593  164.7280 F       1  UNL1       -0.1672
     41 F         144.8262  144.2492  165.4218 F       1  UNL1       -0.1672
     42 C         142.9515  139.0332  161.3226 C.3     1  UNL1        0.0543
     43 C         142.2191  138.4759  162.5071 C.ar    1  UNL1       -0.0199
     44 C         140.8551  137.8769  162.3318 C.ar    1  UNL1       -0.0042
     45 C         140.1228  137.3196  163.5163 C.ar    1  UNL1       -0.0003
     46 C         140.7545  137.3612  164.8762 C.ar    1  UNL1       -0.0000
     47 C         142.1185  137.9602  165.0515 C.ar    1  UNL1       -0.0003
     48 C         142.8508  138.5175  163.8670 C.ar    1  UNL1       -0.0042
@<TRIPOS>BOND
     1    27    28    1
     2    28    23    1
     3    23    24    2
     4    23    25   am
     5    25     1    1
     6     1    42    1
     7    42    43    1
     8    43    44   ar
     9    44    45   ar
    10    45    46   ar
    11    46    47   ar
    12    47    48   ar
    13     1     2    1
    14     2     3   ar
    15     3     4   ar
    16     4     5    1
    17     4     6   ar
    18     6     7   ar
    19     7     9    1
    20     9    10    1
    21    10    11    1
    22    10    12    1
    23    10    13    1
    24    13    14    1
    25    13    15    1
    26     7     8   ar
    27     1    16    1
    28    16    17   ar
    29    17    18   ar
    30    18    19   ar
    31    19    20    1
    32    19    21   ar
    33    21    22   ar
    34    28    31    1
    35    31    32    1
    36    31    34    1
    37    34    35    1
    38    34    36    1
    39    34    37    1
    40    31    38    1
    41    38    39    1
    42    38    40    1
    43    38    41    1
    44    48    43   ar
    45     8     2   ar
    46    22    16   ar
    47    27    29    1
    48    27    30    1
    49    25    26    1
    50    32    33    1
@<TRIPOS>MOLECULE
*****
 48 50 0 0 0
SMALL
GASTEIGER

@<TRIPOS>ATOM
      1 C         141.7081  142.3053  160.5390 C.3     1  UNL1        0.1152
      2 C         140.9646  141.0509  160.1870 C.ar    1  UNL1        0.0046
      3 C         140.2117  140.9634  158.8927 C.ar    1  UNL1        0.0275
      4 C         139.4683  139.7091  158.5407 C.ar    1  UNL1        0.1429
      5 F         138.7154  139.6216  157.2463 F       1  UNL1       -0.2041
      6 C         139.4779  138.5422  159.4831 C.ar    1  UNL1        0.0667
      7 C         140.2308  138.6296  160.7775 C.ar    1  UNL1        0.1461
      8 C         140.9742  139.8840  161.1295 C.ar    1  UNL1        0.0349
      9 O         140.2404  137.4626  161.7199 O.3     1  UNL1       -0.4263
     10 C         139.9793  137.6767  163.1814 C.3     1  UNL1        0.4723
     11 F         141.3182  137.0843  163.5074 F       1  UNL1       -0.1579
     12 F         138.6404  138.2691  162.8554 F       1  UNL1       -0.1579
     13 C         139.7182  137.8908  164.6429 C.3     1  UNL1        0.4202
     14 F         140.6663  138.7164  165.4611 F       1  UNL1       -0.1876
     15 F         138.5089  137.2792  165.2862 F       1  UNL1       -0.1876
     16 C         142.6357  142.0802  159.3820 C.ar    1  UNL1        0.0792
     17 C         143.4881  140.8469  159.3331 C.ar    1  UNL1        0.0175
     18 C         144.4158  140.6218  158.1759 C.ar    1  UNL1        0.0142
     19 C         144.4909  141.6299  157.0678 C.ar    1  UNL1        0.0768
     20 CL        145.4186  141.4047  155.9107 Cl      1  UNL1       -0.0806
     21 C         143.6385  142.8631  157.1167 C.ar    1  UNL1        0.1098
     22 N         142.7109  143.0883  158.2737 N.ar    1  UNL1       -0.2454
     23 C         139.4966  143.2794  161.4934 C.2     1  UNL1        0.2399
     24 O         139.1488  143.6218  160.8631 O.2     1  UNL1       -0.2736
     25 N         140.7804  142.5305  161.6960 N.am    1  UNL1       -0.2978
     26 H         141.0142  142.1867  162.5885 H       1  UNL1        0.1500
     27 N         137.6443  144.6672  162.4426 N.3     1  UNL1       -0.3126
     28 C         138.5690  143.5046  162.6504 C.3     1  UNL1        0.1699
     29 H         137.8292  145.0904  161.5331 H       1  UNL1        0.1193
     30 H         137.7973  145.3587  163.1767 H       1  UNL1        0.1193
     31 C         138.6341  142.6061  163.8498 C.3     1  UNL1        0.2849
     32 O         138.5498  141.4052  162.9548 O.3     1  UNL1       -0.3715
     33 H         138.4919  141.6942  162.0306 H       1  UNL1        0.2109
     34 C         138.6992  141.7075  165.0491 C.3     1  UNL1        0.4292
     35 F         138.7644  140.8090  166.2484 F       1  UNL1       -0.1672
     36 F         139.8354  142.4039  165.7377 F       1  UNL1       -0.1672
     37 F         137.5625  140.8956  164.5026 F       1  UNL1       -0.1672
     38 C         138.7185  143.8068  164.7448 C.3     1  UNL1        0.4292
     39 F         138.8028  145.0076  165.6399 F       1  UNL1       -0.1672
     40 F         140.1193  144.2047  164.3854 F       1  UNL1       -0.1672
     41 F         137.3381  143.7016  165.3224 F       1  UNL1       -0.1672
     42 C         142.4514  143.5597  160.8909 C.3     1  UNL1        0.0543
     43 C         143.1406  143.6758  162.2182 C.ar    1  UNL1       -0.0199
     44 C         143.0175  144.9379  163.0193 C.ar    1  UNL1       -0.0042
     45 C         143.7066  145.0539  164.3465 C.ar    1  UNL1       -0.0003
     46 C         144.5190  143.9079  164.8726 C.ar    1  UNL1       -0.0000
     47 C         144.6421  142.6458  164.0714 C.ar    1  UNL1       -0.0003
     48 C         143.9529  142.5298  162.7442 C.ar    1  UNL1       -0.0042
@<TRIPOS>BOND
     1    27    28    1
     2    28    23    1
     3    23    24    2
     4    23    25   am
     5    25     1    1
     6     1    42    1
     7    42    43    1
     8    43    44   ar
     9    44    45   ar
    10    45    46   ar
    11    46    47   ar
    12    47    48   ar
    13     1     2    1
    14     2     3   ar
    15     3     4   ar
    16     4     5    1
    17     4     6   ar
    18     6     7   ar
    19     7     9    1
    20     9    10    1
    21    10    11    1
    22    10    12    1
    23    10    13    1
    24    13    14    1
    25    13    15    1
    26     7     8   ar
    27     1    16    1
    28    16    17   ar
    29    17    18   ar
    30    18    19   ar
    31    19    20    1
    32    19    21   ar
    33    21    22   ar
    34    28    31    1
    35    31    32    1
    36    31    34    1
    37    34    35    1
    38    34    36    1
    39    34    37    1
    40    31    38    1
    41    38    39    1
    42    38    40    1
    43    38    41    1
    44    48    43   ar
    45     8     2   ar
    46    22    16   ar
    47    27    29    1
    48    27    30    1
    49    25    26    1
    50    32    33    1
