@<TRIPOS>MOLECULE
*****
 46 50 0 0 0
SMALL
GASTEIGER

@<TRIPOS>ATOM
      1 N         140.6880  139.7045  162.7368 N.am    1  UNL1       -0.2523
      2 C         141.0002  138.3139  163.2047 C.2     1  UNL1        0.2342
      3 O         140.7508  137.1443  162.2993 O.2     1  UNL1       -0.2742
      4 C         141.5616  138.0930  164.5780 C.3     1  UNL1        0.1118
      5 C         141.8110  139.2627  165.4834 C.ar    1  UNL1       -0.0119
      6 C         142.3725  139.0417  166.8567 C.ar    1  UNL1        0.0360
      7 C         142.6218  140.2114  167.7621 C.ar    1  UNL1        0.1721
      8 C         142.3097  141.6019  167.2942 C.ar    1  UNL1        0.1718
      9 C         141.7482  141.8229  165.9209 C.ar    1  UNL1        0.0374
     10 C         141.4989  140.6532  165.0156 C.ar    1  UNL1       -0.0000
     11 C         140.9374  140.8741  163.6422 C.3     1  UNL1        0.1245
     12 C         140.6252  142.2647  163.1743 C.ar    1  UNL1        0.0003
     13 C         139.2609  142.8445  163.4034 C.ar    1  UNL1       -0.0015
     14 C         138.9487  144.2351  162.9355 C.ar    1  UNL1        0.0111
     15 C         140.0009  145.0458  162.2386 C.ar    1  UNL1        0.0577
     16 CL        139.6888  146.4364  161.7707 Cl      1  UNL1       -0.0822
     17 C         141.3652  144.4660  162.0096 C.ar    1  UNL1        0.0111
     18 C         141.6773  143.0754  162.4774 C.ar    1  UNL1       -0.0015
     19 C         139.0034  140.3672  158.6170 C.ar    1  UNL1        0.0480
     20 C         140.4882  140.3739  158.8302 C.ar    1  UNL1        0.0158
     21 C         141.0497  140.1530  160.2034 C.ar    1  UNL1        0.0162
     22 C         140.1265  139.9254  161.3635 C.ar    1  UNL1        0.0545
     23 C         138.6417  139.9187  161.1503 C.ar    1  UNL1        0.0162
     24 C         138.0802  140.1396  159.7771 C.ar    1  UNL1        0.0158
     25 N         138.4419  140.5881  157.2437 N.pl3   1  UNL1       -0.3058
     26 C         138.8706  139.7074  156.1076 C.3     1  UNL1        0.1122
     27 C         137.4518  141.6895  157.0065 C.3     1  UNL1        0.0908
     28 C         138.7749  145.5226  155.0555 C.3     1  UNL1        0.0716
     29 C         137.3827  145.0101  154.8342 C.3     1  UNL1        0.0196
     30 C         136.9416  143.7324  155.4845 C.3     1  UNL1        0.0034
     31 C         137.8928  142.9672  156.3562 C.3     1  UNL1        0.0199
     32 C         139.2851  143.4798  156.5774 C.3     1  UNL1        0.0034
     33 C         139.7261  144.7575  155.9271 C.3     1  UNL1        0.0196
     34 C         139.1948  148.0835  155.1818 C.2     1  UNL1        0.2224
     35 O         138.7326  148.0888  156.6089 O.2     1  UNL1       -0.2751
     36 N         139.2160  146.8004  154.4051 N.am    1  UNL1       -0.3060
     37 H         139.5194  146.7968  153.4685 H       1  UNL1        0.1494
     38 C         139.0334  150.6669  154.9584 C.3     1  UNL1        0.0101
     39 C         139.6359  149.3612  154.5315 C.3     1  UNL1        0.0851
     40 O         143.1834  139.9905  169.1354 O.3     1  UNL1       -0.4684
     41 C         142.4805  139.0766  170.0950 C.3     1  UNL1        0.2526
     42 O         142.5591  142.7716  168.1997 O.3     1  UNL1       -0.4761
     43 C         141.7971  142.9006  169.4853 C.3     1  UNL1        0.1662
     44 C         142.5308  143.1445  170.7707 C.3     1  UNL1        0.0472
     45 C         140.3015  142.7858  169.4854 C.3     1  UNL1        0.0435
     46 C         139.6449  141.5415  170.0055 C.3     1  UNL1        0.0038
@<TRIPOS>BOND
     1    38    39    1
     2    39    34    1
     3    34    35    2
     4    34    36   am
     5    28    36    1
     6    28    29    1
     7    29    30    1
     8    30    31    1
     9    31    27    1
    10    27    25    1
    11    25    26    1
    12    25    19    1
    13    19    20   ar
    14    20    21   ar
    15    21    22   ar
    16    22     1    1
    17     1     2   am
    18     2     3    2
    19     2     4    1
    20     4     5    1
    21     5     6   ar
    22     6     7   ar
    23     7    40    1
    24    40    41    1
    25     7     8   ar
    26     8    42    1
    27    42    43    1
    28    43    44    1
    29    43    45    1
    30    45    46    1
    31     8     9   ar
    32     9    10   ar
    33    10    11    1
    34    11    12    1
    35    12    13   ar
    36    13    14   ar
    37    14    15   ar
    38    15    16    1
    39    15    17   ar
    40    17    18   ar
    41    22    23   ar
    42    23    24   ar
    43    31    32    1
    44    32    33    1
    45    33    28    1
    46    24    19   ar
    47    11     1    1
    48    18    12   ar
    49    10     5   ar
    50    36    37    1
@<TRIPOS>MOLECULE
*****
 46 50 0 0 0
SMALL
GASTEIGER

@<TRIPOS>ATOM
      1 N         139.6153  140.4776  163.5499 N.am    1  UNL1       -0.2523
      2 C         138.6561  139.3568  163.8214 C.2     1  UNL1        0.2342
      3 O         138.0510  138.5945  162.6800 O.2     1  UNL1       -0.2742
      4 C         138.3020  138.9983  165.2342 C.3     1  UNL1        0.1118
      5 C         138.9071  139.7607  166.3756 C.ar    1  UNL1       -0.0119
      6 C         138.5530  139.4022  167.7884 C.ar    1  UNL1        0.0360
      7 C         139.1581  140.1645  168.9297 C.ar    1  UNL1        0.1721
      8 C         140.1173  141.2853  168.6583 C.ar    1  UNL1        0.1718
      9 C         140.4714  141.6438  167.2455 C.ar    1  UNL1        0.0374
     10 C         139.8663  140.8815  166.1041 C.ar    1  UNL1       -0.0000
     11 C         140.2204  141.2400  164.6913 C.3     1  UNL1        0.1245
     12 C         141.1796  142.3608  164.4198 C.ar    1  UNL1        0.0003
     13 C         140.6636  143.7503  164.1892 C.ar    1  UNL1       -0.0015
     14 C         141.6228  144.8711  163.9178 C.ar    1  UNL1        0.0111
     15 C         143.0980  144.6024  163.8768 C.ar    1  UNL1        0.0577
     16 CL        144.0572  145.7233  163.6054 Cl      1  UNL1       -0.0822
     17 C         143.6140  143.2130  164.1074 C.ar    1  UNL1        0.0111
     18 C         142.6548  142.0922  164.3788 C.ar    1  UNL1       -0.0015
     19 C         140.6775  141.5531  159.3114 C.ar    1  UNL1        0.0480
     20 C         141.5213  140.5722  160.0702 C.ar    1  UNL1        0.0158
     21 C         141.1672  140.2137  161.4830 C.ar    1  UNL1        0.0162
     22 C         139.9694  140.8361  162.1370 C.ar    1  UNL1        0.0545
     23 C         139.1257  141.8171  161.3782 C.ar    1  UNL1        0.0162
     24 C         139.4797  142.1755  159.9654 C.ar    1  UNL1        0.0158
     25 N         141.0316  141.9116  157.8985 N.pl3   1  UNL1       -0.3058
     26 C         142.4590  141.8432  157.4427 C.3     1  UNL1        0.1122
     27 C         139.9583  142.3384  156.9416 C.3     1  UNL1        0.0908
     28 C         139.2028  146.7145  156.2143 C.3     1  UNL1        0.0716
     29 C         140.1983  146.2876  157.2519 C.3     1  UNL1        0.0196
     30 C         140.4502  144.8289  157.4944 C.3     1  UNL1        0.0034
     31 C         139.7065  143.7971  156.6992 C.3     1  UNL1        0.0199
     32 C         138.7109  144.2241  155.6615 C.3     1  UNL1        0.0034
     33 C         138.4591  145.6827  155.4191 C.3     1  UNL1        0.0196
     34 C         139.5286  148.8428  154.7602 C.2     1  UNL1        0.2224
     35 O         140.3581  148.0537  153.7911 O.2     1  UNL1       -0.2751
     36 N         138.9509  148.1733  155.9718 N.am    1  UNL1       -0.3060
     37 H         138.4065  148.6912  156.6079 H       1  UNL1        0.1494
     38 C         138.5197  151.1102  155.5291 C.3     1  UNL1        0.0101
     39 C         139.2767  150.3015  154.5177 C.3     1  UNL1        0.0851
     40 O         138.8040  139.8060  170.3426 O.3     1  UNL1       -0.4684
     41 C         137.4014  139.3985  170.6840 C.3     1  UNL1        0.2526
     42 O         140.7224  142.0477  169.7997 O.3     1  UNL1       -0.4761
     43 C         142.1066  141.7160  170.2731 C.3     1  UNL1        0.1662
     44 C         143.1920  142.7486  170.1994 C.3     1  UNL1        0.0472
     45 C         142.4052  140.3515  170.8202 C.3     1  UNL1        0.0435
     46 C         142.6148  139.1978  169.8848 C.3     1  UNL1        0.0038
@<TRIPOS>BOND
     1    38    39    1
     2    39    34    1
     3    34    35    2
     4    34    36   am
     5    28    36    1
     6    28    29    1
     7    29    30    1
     8    30    31    1
     9    31    27    1
    10    27    25    1
    11    25    26    1
    12    25    19    1
    13    19    20   ar
    14    20    21   ar
    15    21    22   ar
    16    22     1    1
    17     1     2   am
    18     2     3    2
    19     2     4    1
    20     4     5    1
    21     5     6   ar
    22     6     7   ar
    23     7    40    1
    24    40    41    1
    25     7     8   ar
    26     8    42    1
    27    42    43    1
    28    43    44    1
    29    43    45    1
    30    45    46    1
    31     8     9   ar
    32     9    10   ar
    33    10    11    1
    34    11    12    1
    35    12    13   ar
    36    13    14   ar
    37    14    15   ar
    38    15    16    1
    39    15    17   ar
    40    17    18   ar
    41    22    23   ar
    42    23    24   ar
    43    31    32    1
    44    32    33    1
    45    33    28    1
    46    24    19   ar
    47    11     1    1
    48    18    12   ar
    49    10     5   ar
    50    36    37    1
@<TRIPOS>MOLECULE
*****
 46 50 0 0 0
SMALL
GASTEIGER

@<TRIPOS>ATOM
      1 N         139.8859  139.8906  163.6647 N.am    1  UNL1       -0.2523
      2 C         138.9892  138.7358  163.9997 C.2     1  UNL1        0.2342
      3 O         138.5307  137.8036  162.9176 O.2     1  UNL1       -0.2742
      4 C         138.5510  138.5131  165.4169 C.3     1  UNL1        0.1118
      5 C         139.0094  139.4452  166.4990 C.ar    1  UNL1       -0.0119
      6 C         138.5712  139.2225  167.9162 C.ar    1  UNL1        0.0360
      7 C         139.0297  140.1546  168.9982 C.ar    1  UNL1        0.1721
      8 C         139.9264  141.3095  168.6631 C.ar    1  UNL1        0.1718
      9 C         140.3646  141.5322  167.2460 C.ar    1  UNL1        0.0374
     10 C         139.9061  140.6001  166.1639 C.ar    1  UNL1       -0.0000
     11 C         140.3443  140.8228  164.7467 C.3     1  UNL1        0.1245
     12 C         141.2410  141.9776  164.4116 C.ar    1  UNL1        0.0003
     13 C         140.6504  143.3241  164.1144 C.ar    1  UNL1       -0.0015
     14 C         141.5471  144.4789  163.7793 C.ar    1  UNL1        0.0111
     15 C         143.0344  144.2873  163.7415 C.ar    1  UNL1        0.0577
     16 CL        143.9310  145.4422  163.4064 Cl      1  UNL1       -0.0822
     17 C         143.6249  142.9409  164.0387 C.ar    1  UNL1        0.0111
     18 C         142.7282  141.7861  164.3738 C.ar    1  UNL1       -0.0015
     19 C         141.2005  140.5586  159.4132 C.ar    1  UNL1        0.0480
     20 C         140.0036  141.2853  159.9510 C.ar    1  UNL1        0.0158
     21 C         139.5654  141.0626  161.3682 C.ar    1  UNL1        0.0162
     22 C         140.3241  140.1133  162.2474 C.ar    1  UNL1        0.0545
     23 C         141.5210  139.3867  161.7095 C.ar    1  UNL1        0.0162
     24 C         141.9592  139.6093  160.2924 C.ar    1  UNL1        0.0158
     25 N         141.6387  140.7813  157.9959 N.pl3   1  UNL1       -0.3058
     26 C         141.3265  139.7578  156.9448 C.3     1  UNL1        0.1122
     27 C         142.3891  142.0275  157.6299 C.3     1  UNL1        0.0908
     28 C         140.1765  145.9077  157.0839 C.3     1  UNL1        0.0716
     29 C         141.4674  145.8815  157.8473 C.3     1  UNL1        0.0196
     30 C         142.2050  144.5880  158.0294 C.3     1  UNL1        0.0034
     31 C         141.6516  143.3208  157.4480 C.3     1  UNL1        0.0199
     32 C         140.3606  143.3471  156.6845 C.3     1  UNL1        0.0034
     33 C         139.6231  144.6405  156.5025 C.3     1  UNL1        0.0196
     34 C         139.4495  147.8894  155.5692 C.2     1  UNL1        0.2224
     35 O         140.1977  147.2842  154.4185 O.2     1  UNL1       -0.2751
     36 N         139.4389  147.2011  156.9019 N.am    1  UNL1       -0.3060
     37 H         138.9479  147.5983  157.6572 H       1  UNL1        0.1494
     38 C         138.3510  150.0149  156.5818 C.3     1  UNL1        0.0101
     39 C         138.7120  149.1827  155.3871 C.3     1  UNL1        0.0851
     40 O         138.5915  139.9319  170.4154 O.3     1  UNL1       -0.4684
     41 C         137.2564  139.3095  170.6986 C.3     1  UNL1        0.2526
     42 O         140.3848  142.2416  169.7453 O.3     1  UNL1       -0.4761
     43 C         141.6811  141.9863  170.4556 C.3     1  UNL1        0.1662
     44 C         141.8612  140.7334  171.2604 C.3     1  UNL1        0.0472
     45 C         142.7972  142.9841  170.3612 C.3     1  UNL1        0.0435
     46 C         144.0405  142.6480  169.5922 C.3     1  UNL1        0.0038
@<TRIPOS>BOND
     1    38    39    1
     2    39    34    1
     3    34    35    2
     4    34    36   am
     5    28    36    1
     6    28    29    1
     7    29    30    1
     8    30    31    1
     9    31    27    1
    10    27    25    1
    11    25    26    1
    12    25    19    1
    13    19    20   ar
    14    20    21   ar
    15    21    22   ar
    16    22     1    1
    17     1     2   am
    18     2     3    2
    19     2     4    1
    20     4     5    1
    21     5     6   ar
    22     6     7   ar
    23     7    40    1
    24    40    41    1
    25     7     8   ar
    26     8    42    1
    27    42    43    1
    28    43    44    1
    29    43    45    1
    30    45    46    1
    31     8     9   ar
    32     9    10   ar
    33    10    11    1
    34    11    12    1
    35    12    13   ar
    36    13    14   ar
    37    14    15   ar
    38    15    16    1
    39    15    17   ar
    40    17    18   ar
    41    22    23   ar
    42    23    24   ar
    43    31    32    1
    44    32    33    1
    45    33    28    1
    46    24    19   ar
    47    11     1    1
    48    18    12   ar
    49    10     5   ar
    50    36    37    1
@<TRIPOS>MOLECULE
*****
 46 50 0 0 0
SMALL
GASTEIGER

@<TRIPOS>ATOM
      1 N         142.4364  143.6097  162.5782 N.am    1  UNL1       -0.2523
      2 C         143.5300  144.3304  163.3093 C.2     1  UNL1        0.2342
      3 O         144.2926  145.4269  162.6265 O.2     1  UNL1       -0.2742
      4 C         143.8611  143.9546  164.7232 C.3     1  UNL1        0.1118
      5 C         143.0985  142.8581  165.4060 C.ar    1  UNL1       -0.0119
      6 C         143.4296  142.4823  166.8199 C.ar    1  UNL1        0.0360
      7 C         142.6671  141.3858  167.5026 C.ar    1  UNL1        0.1721
      8 C         141.5734  140.6651  166.7715 C.ar    1  UNL1        0.1718
      9 C         141.2424  141.0409  165.3576 C.ar    1  UNL1        0.0374
     10 C         142.0049  142.1373  164.6749 C.ar    1  UNL1       -0.0000
     11 C         141.6738  142.5132  163.2609 C.3     1  UNL1        0.1245
     12 C         140.5802  141.7925  162.5298 C.ar    1  UNL1        0.0003
     13 C         139.1622  142.2684  162.6430 C.ar    1  UNL1       -0.0015
     14 C         138.0686  141.5477  161.9118 C.ar    1  UNL1        0.0111
     15 C         138.3930  140.3511  161.0675 C.ar    1  UNL1        0.0577
     16 CL        137.2994  139.6304  160.3363 Cl      1  UNL1       -0.0822
     17 C         139.8110  139.8752  160.9543 C.ar    1  UNL1        0.0111
     18 C         140.9046  140.5959  161.6854 C.ar    1  UNL1       -0.0015
     19 C         141.4432  144.7372  158.3365 C.ar    1  UNL1        0.0480
     20 C         142.5262  143.7368  158.6126 C.ar    1  UNL1        0.0158
     21 C         142.8572  143.3609  160.0265 C.ar    1  UNL1        0.0162
     22 C         142.1053  143.9855  161.1642 C.ar    1  UNL1        0.0545
     23 C         141.0223  144.9860  160.8881 C.ar    1  UNL1        0.0162
     24 C         140.6913  145.3618  159.4742 C.ar    1  UNL1        0.0158
     25 N         141.1121  145.1131  156.9225 N.pl3   1  UNL1       -0.3058
     26 C         142.1516  144.9831  155.8489 C.3     1  UNL1        0.1122
     27 C         139.7416  145.6189  156.5822 C.3     1  UNL1        0.0908
     28 C         139.2386  149.7037  154.7626 C.3     1  UNL1        0.0716
     29 C         139.9451  148.6239  153.9978 C.3     1  UNL1        0.0196
     30 C         140.1127  147.2622  154.6044 C.3     1  UNL1        0.0034
     31 C         139.5740  146.9805  155.9756 C.3     1  UNL1        0.0199
     32 C         138.8675  148.0604  156.7404 C.3     1  UNL1        0.0034
     33 C         138.6999  149.4220  156.1338 C.3     1  UNL1        0.0196
     34 C         140.1917  152.0600  154.2242 C.2     1  UNL1        0.2224
     35 O         141.4802  151.6929  154.8989 O.2     1  UNL1       -0.2751
     36 N         139.0709  151.0654  154.1560 N.am    1  UNL1       -0.3060
     37 H         138.2253  151.3063  153.7132 H       1  UNL1        0.1494
     38 C         141.2298  154.2590  153.3095 C.3     1  UNL1        0.0101
     39 C         140.0241  153.4216  153.6177 C.3     1  UNL1        0.0851
     40 O         142.9981  141.0099  168.9166 O.3     1  UNL1       -0.4684
     41 C         143.6513  142.0091  169.8249 C.3     1  UNL1        0.2526
     42 O         140.8109  139.5685  167.4543 O.3     1  UNL1       -0.4761
     43 C         139.4725  139.8554  168.0679 C.3     1  UNL1        0.1662
     44 C         139.3846  140.6425  169.3417 C.3     1  UNL1        0.0472
     45 C         138.2220  139.3550  167.4075 C.3     1  UNL1        0.0435
     46 C         138.1569  139.2413  165.9133 C.3     1  UNL1        0.0038
@<TRIPOS>BOND
     1    38    39    1
     2    39    34    1
     3    34    35    2
     4    34    36   am
     5    28    36    1
     6    28    29    1
     7    29    30    1
     8    30    31    1
     9    31    27    1
    10    27    25    1
    11    25    26    1
    12    25    19    1
    13    19    20   ar
    14    20    21   ar
    15    21    22   ar
    16    22     1    1
    17     1     2   am
    18     2     3    2
    19     2     4    1
    20     4     5    1
    21     5     6   ar
    22     6     7   ar
    23     7    40    1
    24    40    41    1
    25     7     8   ar
    26     8    42    1
    27    42    43    1
    28    43    44    1
    29    43    45    1
    30    45    46    1
    31     8     9   ar
    32     9    10   ar
    33    10    11    1
    34    11    12    1
    35    12    13   ar
    36    13    14   ar
    37    14    15   ar
    38    15    16    1
    39    15    17   ar
    40    17    18   ar
    41    22    23   ar
    42    23    24   ar
    43    31    32    1
    44    32    33    1
    45    33    28    1
    46    24    19   ar
    47    11     1    1
    48    18    12   ar
    49    10     5   ar
    50    36    37    1
@<TRIPOS>MOLECULE
*****
 46 50 0 0 0
SMALL
GASTEIGER

@<TRIPOS>ATOM
      1 N         140.0586  139.3067  163.5599 N.am    1  UNL1       -0.2523
      2 C         138.6716  138.8035  163.8300 C.2     1  UNL1        0.2342
      3 O         137.8333  138.2742  162.7042 O.2     1  UNL1       -0.2742
      4 C         138.1229  138.8295  165.2257 C.3     1  UNL1        0.1118
      5 C         138.9612  139.3587  166.3515 C.ar    1  UNL1       -0.0119
      6 C         138.4125  139.3847  167.7473 C.ar    1  UNL1        0.0360
      7 C         139.2508  139.9139  168.8729 C.ar    1  UNL1        0.1721
      8 C         140.6378  140.4171  168.6028 C.ar    1  UNL1        0.1718
      9 C         141.1865  140.3911  167.2070 C.ar    1  UNL1        0.0374
     10 C         140.3482  139.8619  166.0814 C.ar    1  UNL1       -0.0000
     11 C         140.8969  139.8359  164.6855 C.3     1  UNL1        0.1245
     12 C         142.2839  140.3391  164.4154 C.ar    1  UNL1        0.0003
     13 C         143.4498  139.3976  164.4831 C.ar    1  UNL1       -0.0015
     14 C         144.8368  139.9009  164.2130 C.ar    1  UNL1        0.0111
     15 C         145.0579  141.3456  163.8752 C.ar    1  UNL1        0.0577
     16 CL        146.4450  141.8488  163.6051 Cl      1  UNL1       -0.0822
     17 C         143.8921  142.2870  163.8076 C.ar    1  UNL1        0.0111
     18 C         142.5051  141.7837  164.0777 C.ar    1  UNL1       -0.0015
     19 C         141.7046  139.2288  159.3725 C.ar    1  UNL1        0.0480
     20 C         141.9155  138.0557  160.2832 C.ar    1  UNL1        0.0158
     21 C         141.3668  138.0816  161.6789 C.ar    1  UNL1        0.0162
     22 C         140.6073  139.2807  162.1640 C.ar    1  UNL1        0.0545
     23 C         140.3964  140.4538  161.2533 C.ar    1  UNL1        0.0162
     24 C         140.9451  140.4278  159.8576 C.ar    1  UNL1        0.0158
     25 N         142.2533  139.2028  157.9766 N.pl3   1  UNL1       -0.3058
     26 C         143.5890  139.8195  157.6842 C.3     1  UNL1        0.1122
     27 C         141.4663  138.5600  156.8732 C.3     1  UNL1        0.0908
     28 C         142.6268  134.4835  155.3616 C.3     1  UNL1        0.0716
     29 C         143.6470  135.3515  156.0367 C.3     1  UNL1        0.0196
     30 C         143.2602  136.7103  156.5406 C.3     1  UNL1        0.0034
     31 C         141.8532  137.2012  156.3694 C.3     1  UNL1        0.0199
     32 C         140.8330  136.3332  155.6942 C.3     1  UNL1        0.0034
     33 C         141.2198  134.9744  155.1903 C.3     1  UNL1        0.0196
     34 C         142.9699  131.9423  155.7797 C.2     1  UNL1        0.2224
     35 O         142.5393  132.1189  157.2058 O.2     1  UNL1       -0.2751
     36 N         143.0137  133.1246  154.8576 N.am    1  UNL1       -0.3060
     37 H         143.2963  133.0087  153.9217 H       1  UNL1        0.1494
     38 C         144.8047  130.2302  155.1075 C.3     1  UNL1        0.0101
     39 C         143.3567  130.5835  155.2759 C.3     1  UNL1        0.0851
     40 O         138.7021  139.9399  170.2688 O.3     1  UNL1       -0.4684
     41 C         137.3315  139.3970  170.5461 C.3     1  UNL1        0.2526
     42 O         141.4761  140.9463  169.7286 O.3     1  UNL1       -0.4761
     43 C         141.5492  142.4235  169.9790 C.3     1  UNL1        0.1662
     44 C         140.3238  143.2732  169.8171 C.3     1  UNL1        0.0472
     45 C         142.8478  143.0509  170.3915 C.3     1  UNL1        0.0435
     46 C         144.1442  142.4989  169.8770 C.3     1  UNL1        0.0038
@<TRIPOS>BOND
     1    38    39    1
     2    39    34    1
     3    34    35    2
     4    34    36   am
     5    28    36    1
     6    28    29    1
     7    29    30    1
     8    30    31    1
     9    31    27    1
    10    27    25    1
    11    25    26    1
    12    25    19    1
    13    19    20   ar
    14    20    21   ar
    15    21    22   ar
    16    22     1    1
    17     1     2   am
    18     2     3    2
    19     2     4    1
    20     4     5    1
    21     5     6   ar
    22     6     7   ar
    23     7    40    1
    24    40    41    1
    25     7     8   ar
    26     8    42    1
    27    42    43    1
    28    43    44    1
    29    43    45    1
    30    45    46    1
    31     8     9   ar
    32     9    10   ar
    33    10    11    1
    34    11    12    1
    35    12    13   ar
    36    13    14   ar
    37    14    15   ar
    38    15    16    1
    39    15    17   ar
    40    17    18   ar
    41    22    23   ar
    42    23    24   ar
    43    31    32    1
    44    32    33    1
    45    33    28    1
    46    24    19   ar
    47    11     1    1
    48    18    12   ar
    49    10     5   ar
    50    36    37    1
@<TRIPOS>MOLECULE
*****
 46 50 0 0 0
SMALL
GASTEIGER

@<TRIPOS>ATOM
      1 N         139.9504  139.9741  163.7555 N.am    1  UNL1       -0.2523
      2 C         139.0246  138.8271  164.0334 C.2     1  UNL1        0.2342
      3 O         138.5857  137.9296  162.9145 O.2     1  UNL1       -0.2742
      4 C         138.5377  138.5777  165.4300 C.3     1  UNL1        0.1118
      5 C         138.9766  139.4752  166.5489 C.ar    1  UNL1       -0.0119
      6 C         138.4898  139.2258  167.9455 C.ar    1  UNL1        0.0360
      7 C         138.9287  140.1233  169.0643 C.ar    1  UNL1        0.1721
      8 C         139.8545  141.2703  168.7864 C.ar    1  UNL1        0.1718
      9 C         140.3414  141.5198  167.3898 C.ar    1  UNL1        0.0374
     10 C         139.9025  140.6222  166.2710 C.ar    1  UNL1       -0.0000
     11 C         140.3894  140.8717  164.8743 C.3     1  UNL1        0.1245
     12 C         141.3152  142.0187  164.5964 C.ar    1  UNL1        0.0003
     13 C         140.7565  143.3608  164.2265 C.ar    1  UNL1       -0.0015
     14 C         141.6824  144.5078  163.9486 C.ar    1  UNL1        0.0111
     15 C         143.1668  144.3127  164.0407 C.ar    1  UNL1        0.0577
     16 CL        144.0926  145.4598  163.7628 Cl      1  UNL1       -0.0822
     17 C         143.7254  142.9707  164.4106 C.ar    1  UNL1        0.0111
     18 C         142.7996  141.8237  164.6884 C.ar    1  UNL1       -0.0015
     19 C         141.4109  140.7225  159.5654 C.ar    1  UNL1        0.0480
     20 C         142.2198  139.8741  160.5013 C.ar    1  UNL1        0.0158
     21 C         141.7330  139.6247  161.8980 C.ar    1  UNL1        0.0162
     22 C         140.4373  140.2236  162.3588 C.ar    1  UNL1        0.0545
     23 C         139.6284  141.0720  161.4229 C.ar    1  UNL1        0.0162
     24 C         140.1152  141.3215  160.0262 C.ar    1  UNL1        0.0158
     25 N         141.8978  140.9720  158.1687 N.pl3   1  UNL1       -0.3058
     26 C         142.8404  142.1061  157.8944 C.3     1  UNL1        0.1122
     27 C         141.4422  140.0873  157.0464 C.3     1  UNL1        0.0908
     28 C         143.5131  136.1642  156.2911 C.3     1  UNL1        0.0716
     29 C         143.7087  137.3101  155.3432 C.3     1  UNL1        0.0196
     30 C         143.0183  138.6179  155.5950 C.3     1  UNL1        0.0034
     31 C         142.1325  138.7796  156.7946 C.3     1  UNL1        0.0199
     32 C         141.9369  137.6335  157.7425 C.3     1  UNL1        0.0034
     33 C         142.6272  136.3259  157.4907 C.3     1  UNL1        0.0196
     34 C         143.3952  133.6164  155.7959 C.2     1  UNL1        0.2224
     35 O         141.8967  133.6842  155.8043 O.2     1  UNL1       -0.2751
     36 N         144.2034  134.8564  156.0393 N.am    1  UNL1       -0.3060
     37 H         145.1869  134.8120  156.0339 H       1  UNL1        0.1494
     38 C         145.1109  131.8028  156.5150 C.3     1  UNL1        0.0101
     39 C         144.0854  132.3087  155.5442 C.3     1  UNL1        0.0851
     40 O         138.4418  139.8739  170.4610 O.3     1  UNL1       -0.4684
     41 C         137.1271  139.1874  170.6856 C.3     1  UNL1        0.2526
     42 O         140.2934  142.1679  169.9053 O.3     1  UNL1       -0.4761
     43 C         141.6744  142.0350  170.4756 C.3     1  UNL1        0.1662
     44 C         142.6199  143.1986  170.4297 C.3     1  UNL1        0.0472
     45 C         142.1099  140.7386  171.0917 C.3     1  UNL1        0.0435
     46 C         142.5689  139.6095  170.2173 C.3     1  UNL1        0.0038
@<TRIPOS>BOND
     1    38    39    1
     2    39    34    1
     3    34    35    2
     4    34    36   am
     5    28    36    1
     6    28    29    1
     7    29    30    1
     8    30    31    1
     9    31    27    1
    10    27    25    1
    11    25    26    1
    12    25    19    1
    13    19    20   ar
    14    20    21   ar
    15    21    22   ar
    16    22     1    1
    17     1     2   am
    18     2     3    2
    19     2     4    1
    20     4     5    1
    21     5     6   ar
    22     6     7   ar
    23     7    40    1
    24    40    41    1
    25     7     8   ar
    26     8    42    1
    27    42    43    1
    28    43    44    1
    29    43    45    1
    30    45    46    1
    31     8     9   ar
    32     9    10   ar
    33    10    11    1
    34    11    12    1
    35    12    13   ar
    36    13    14   ar
    37    14    15   ar
    38    15    16    1
    39    15    17   ar
    40    17    18   ar
    41    22    23   ar
    42    23    24   ar
    43    31    32    1
    44    32    33    1
    45    33    28    1
    46    24    19   ar
    47    11     1    1
    48    18    12   ar
    49    10     5   ar
    50    36    37    1
@<TRIPOS>MOLECULE
*****
 46 50 0 0 0
SMALL
GASTEIGER

@<TRIPOS>ATOM
      1 N         142.6247  143.3514  162.8660 N.am    1  UNL1       -0.2523
      2 C         143.6988  144.1209  163.5761 C.2     1  UNL1        0.2342
      3 O         144.4760  145.1741  162.8434 O.2     1  UNL1       -0.2742
      4 C         143.9957  143.8373  165.0187 C.3     1  UNL1        0.1118
      5 C         143.2185  142.7840  165.7514 C.ar    1  UNL1       -0.0119
      6 C         143.5155  142.5004  167.1941 C.ar    1  UNL1        0.0360
      7 C         142.7383  141.4472  167.9267 C.ar    1  UNL1        0.1721
      8 C         141.6641  140.6777  167.2166 C.ar    1  UNL1        0.1718
      9 C         141.3672  140.9614  165.7740 C.ar    1  UNL1        0.0374
     10 C         142.1444  142.0146  165.0414 C.ar    1  UNL1       -0.0000
     11 C         141.8475  142.2983  163.5986 C.3     1  UNL1        0.1245
     12 C         140.7734  141.5288  162.8886 C.ar    1  UNL1        0.0003
     13 C         141.1094  140.2477  162.1842 C.ar    1  UNL1       -0.0015
     14 C         140.0353  139.4782  161.4741 C.ar    1  UNL1        0.0111
     15 C         138.6252  139.9898  161.4685 C.ar    1  UNL1        0.0577
     16 CL        137.5511  139.2203  160.7584 Cl      1  UNL1       -0.0822
     17 C         138.2893  141.2708  162.1729 C.ar    1  UNL1        0.0111
     18 C         139.3634  142.0402  162.8829 C.ar    1  UNL1       -0.0015
     19 C         141.7340  144.2026  158.5380 C.ar    1  UNL1        0.0480
     20 C         142.7729  143.1844  158.9037 C.ar    1  UNL1        0.0158
     21 C         143.0698  142.9006  160.3463 C.ar    1  UNL1        0.0162
     22 C         142.3278  143.6352  161.4233 C.ar    1  UNL1        0.0545
     23 C         141.2889  144.6534  161.0575 C.ar    1  UNL1        0.0162
     24 C         140.9920  144.9372  159.6149 C.ar    1  UNL1        0.0158
     25 N         141.4371  144.4863  157.0952 N.pl3   1  UNL1       -0.3058
     26 C         141.4831  145.8955  156.5831 C.3     1  UNL1        0.1122
     27 C         141.0942  143.3610  156.1647 C.3     1  UNL1        0.0908
     28 C         137.2264  141.1184  156.6755 C.3     1  UNL1        0.0716
     29 C         138.3935  140.4574  156.0040 C.3     1  UNL1        0.0196
     30 C         139.6828  141.2050  155.8337 C.3     1  UNL1        0.0034
     31 C         139.8050  142.6134  156.3349 C.3     1  UNL1        0.0199
     32 C         138.6378  143.2744  157.0065 C.3     1  UNL1        0.0034
     33 C         137.3486  142.5269  157.1767 C.3     1  UNL1        0.0196
     34 C         134.7597  140.6985  155.9760 C.2     1  UNL1        0.2224
     35 O         134.8717  141.7737  154.9360 O.2     1  UNL1       -0.2751
     36 N         135.9371  140.3708  156.8457 N.am    1  UNL1       -0.3060
     37 H         135.8637  139.6652  157.5283 H       1  UNL1        0.1494
     38 C         132.1644  140.6870  156.0952 C.3     1  UNL1        0.0101
     39 C         133.4704  139.9510  156.1463 C.3     1  UNL1        0.0851
     40 O         143.0352  141.1635  169.3694 O.3     1  UNL1       -0.4684
     41 C         142.4977  142.0688  170.4378 C.3     1  UNL1        0.2526
     42 O         140.8869  139.6245  167.9493 O.3     1  UNL1       -0.4761
     43 C         139.4760  139.8969  168.3796 C.3     1  UNL1        0.1662
     44 C         139.2107  140.7533  169.5821 C.3     1  UNL1        0.0472
     45 C         138.3304  139.3127  167.6073 C.3     1  UNL1        0.0435
     46 C         138.3092  139.4076  166.1104 C.3     1  UNL1        0.0038
@<TRIPOS>BOND
     1    38    39    1
     2    39    34    1
     3    34    35    2
     4    34    36   am
     5    28    36    1
     6    28    29    1
     7    29    30    1
     8    30    31    1
     9    31    27    1
    10    27    25    1
    11    25    26    1
    12    25    19    1
    13    19    20   ar
    14    20    21   ar
    15    21    22   ar
    16    22     1    1
    17     1     2   am
    18     2     3    2
    19     2     4    1
    20     4     5    1
    21     5     6   ar
    22     6     7   ar
    23     7    40    1
    24    40    41    1
    25     7     8   ar
    26     8    42    1
    27    42    43    1
    28    43    44    1
    29    43    45    1
    30    45    46    1
    31     8     9   ar
    32     9    10   ar
    33    10    11    1
    34    11    12    1
    35    12    13   ar
    36    13    14   ar
    37    14    15   ar
    38    15    16    1
    39    15    17   ar
    40    17    18   ar
    41    22    23   ar
    42    23    24   ar
    43    31    32    1
    44    32    33    1
    45    33    28    1
    46    24    19   ar
    47    11     1    1
    48    18    12   ar
    49    10     5   ar
    50    36    37    1
@<TRIPOS>MOLECULE
*****
 46 50 0 0 0
SMALL
GASTEIGER

@<TRIPOS>ATOM
      1 N         139.7951  143.5447  158.4412 N.am    1  UNL1       -0.2523
      2 C         139.8067  144.5626  157.3395 C.2     1  UNL1        0.2342
      3 O         140.7684  145.7126  157.3909 O.2     1  UNL1       -0.2742
      4 C         138.8565  144.4306  156.1863 C.3     1  UNL1        0.1118
      5 C         137.8947  143.2806  156.1349 C.ar    1  UNL1       -0.0119
      6 C         136.9446  143.1485  154.9818 C.ar    1  UNL1        0.0360
      7 C         135.9829  141.9986  154.9304 C.ar    1  UNL1        0.1721
      8 C         135.9713  140.9807  156.0321 C.ar    1  UNL1        0.1718
      9 C         136.9215  141.1127  157.1852 C.ar    1  UNL1        0.0374
     10 C         137.8832  142.2627  157.2366 C.ar    1  UNL1       -0.0000
     11 C         138.8334  142.3948  158.3898 C.3     1  UNL1        0.1245
     12 C         138.8219  141.3769  159.4915 C.ar    1  UNL1        0.0003
     13 C         139.5817  140.0931  159.3344 C.ar    1  UNL1       -0.0015
     14 C         139.5702  139.0752  160.4361 C.ar    1  UNL1        0.0111
     15 C         138.7988  139.3411  161.6949 C.ar    1  UNL1        0.0577
     16 CL        138.7872  138.3232  162.7966 Cl      1  UNL1       -0.0822
     17 C         138.0389  140.6248  161.8518 C.ar    1  UNL1        0.0111
     18 C         138.0505  141.6427  160.7501 C.ar    1  UNL1       -0.0015
     19 C         142.6458  143.9409  161.9005 C.ar    1  UNL1        0.0480
     20 C         141.3349  144.6698  161.9216 C.ar    1  UNL1        0.0158
     21 C         140.3847  144.5377  160.7685 C.ar    1  UNL1        0.0162
     22 C         140.7453  143.6768  159.5943 C.ar    1  UNL1        0.0545
     23 C         142.0562  142.9480  159.5732 C.ar    1  UNL1        0.0162
     24 C         143.0064  143.0800  160.7263 C.ar    1  UNL1        0.0158
     25 N         143.5960  144.0730  163.0536 N.pl3   1  UNL1       -0.3058
     26 C         144.0681  145.4300  163.4847 C.3     1  UNL1        0.1122
     27 C         144.0741  142.8482  163.7756 C.3     1  UNL1        0.0908
     28 C         141.1188  140.1605  165.8473 C.3     1  UNL1        0.0716
     29 C         141.5455  141.4450  166.4936 C.3     1  UNL1        0.0196
     30 C         142.5306  142.3410  165.8030 C.3     1  UNL1        0.0034
     31 C         143.0890  141.9523  164.4662 C.3     1  UNL1        0.0199
     32 C         142.6622  140.6677  163.8199 C.3     1  UNL1        0.0034
     33 C         141.6771  139.7718  164.5105 C.3     1  UNL1        0.0196
     34 C         138.6625  139.4546  166.3150 C.2     1  UNL1        0.2224
     35 O         138.1765  140.5406  165.4015 O.2     1  UNL1       -0.2751
     36 N         140.1336  139.2645  166.5379 N.am    1  UNL1       -0.3060
     37 H         140.4526  138.5517  167.1374 H       1  UNL1        0.1494
     38 C         137.6040  137.1048  166.6437 C.3     1  UNL1        0.0101
     39 C         137.6774  138.5587  167.0055 C.3     1  UNL1        0.0851
     40 O         135.0326  141.8665  153.7772 O.3     1  UNL1       -0.4684
     41 C         135.4493  141.1218  152.5436 C.3     1  UNL1        0.2526
     42 O         135.0095  139.8307  155.9806 O.3     1  UNL1       -0.4761
     43 C         133.6342  139.9767  156.5611 C.3     1  UNL1        0.1662
     44 C         133.2668  139.2389  157.8144 C.3     1  UNL1        0.0472
     45 C         132.6261  140.8606  155.8883 C.3     1  UNL1        0.0435
     46 C         131.1634  140.6753  156.1643 C.3     1  UNL1        0.0038
@<TRIPOS>BOND
     1    38    39    1
     2    39    34    1
     3    34    35    2
     4    34    36   am
     5    28    36    1
     6    28    29    1
     7    29    30    1
     8    30    31    1
     9    31    27    1
    10    27    25    1
    11    25    26    1
    12    25    19    1
    13    19    20   ar
    14    20    21   ar
    15    21    22   ar
    16    22     1    1
    17     1     2   am
    18     2     3    2
    19     2     4    1
    20     4     5    1
    21     5     6   ar
    22     6     7   ar
    23     7    40    1
    24    40    41    1
    25     7     8   ar
    26     8    42    1
    27    42    43    1
    28    43    44    1
    29    43    45    1
    30    45    46    1
    31     8     9   ar
    32     9    10   ar
    33    10    11    1
    34    11    12    1
    35    12    13   ar
    36    13    14   ar
    37    14    15   ar
    38    15    16    1
    39    15    17   ar
    40    17    18   ar
    41    22    23   ar
    42    23    24   ar
    43    31    32    1
    44    32    33    1
    45    33    28    1
    46    24    19   ar
    47    11     1    1
    48    18    12   ar
    49    10     5   ar
    50    36    37    1
@<TRIPOS>MOLECULE
*****
 46 50 0 0 0
SMALL
GASTEIGER

@<TRIPOS>ATOM
      1 N         142.3113  140.0406  163.1253 N.am    1  UNL1       -0.2523
      2 C         143.3568  139.0008  163.4004 C.2     1  UNL1        0.2342
      3 O         144.0914  138.3565  162.2622 O.2     1  UNL1       -0.2742
      4 C         143.6679  138.6053  164.8134 C.3     1  UNL1        0.1118
      5 C         142.9333  139.2497  165.9516 C.ar    1  UNL1       -0.0119
      6 C         143.2443  138.8542  167.3647 C.ar    1  UNL1        0.0360
      7 C         142.5097  139.4985  168.5027 C.ar    1  UNL1        0.1721
      8 C         141.4642  140.5383  168.2277 C.ar    1  UNL1        0.1718
      9 C         141.1532  140.9338  166.8146 C.ar    1  UNL1        0.0374
     10 C         141.8877  140.2895  165.6766 C.ar    1  UNL1       -0.0000
     11 C         141.5767  140.6849  164.2634 C.3     1  UNL1        0.1245
     12 C         140.5312  141.7247  163.9884 C.ar    1  UNL1        0.0003
     13 C         139.0901  141.3258  163.8681 C.ar    1  UNL1       -0.0015
     14 C         138.0446  142.3656  163.5931 C.ar    1  UNL1        0.0111
     15 C         138.4400  143.8043  163.4383 C.ar    1  UNL1        0.0577
     16 CL        137.3945  144.8441  163.1633 Cl      1  UNL1       -0.0822
     17 C         139.8810  144.2031  163.5586 C.ar    1  UNL1        0.0111
     18 C         140.9265  143.1633  163.8337 C.ar    1  UNL1       -0.0015
     19 C         141.3784  141.2270  158.8860 C.ar    1  UNL1        0.0480
     20 C         140.5591  140.1710  159.5669 C.ar    1  UNL1        0.0158
     21 C         140.8700  139.7755  160.9800 C.ar    1  UNL1        0.0162
     22 C         142.0003  140.4360  161.7122 C.ar    1  UNL1        0.0545
     23 C         142.8196  141.4920  161.0313 C.ar    1  UNL1        0.0162
     24 C         142.5087  141.8875  159.6182 C.ar    1  UNL1        0.0158
     25 N         141.0674  141.6224  157.4728 N.pl3   1  UNL1       -0.3058
     26 C         142.0958  141.4330  156.3974 C.3     1  UNL1        0.1122
     27 C         139.7281  142.2073  157.1351 C.3     1  UNL1        0.0908
     28 C         139.3694  146.5809  156.1388 C.3     1  UNL1        0.0716
     29 C         138.5060  145.5777  155.4331 C.3     1  UNL1        0.0196
     30 C         138.6255  144.1198  155.7652 C.3     1  UNL1        0.0034
     31 C         139.6085  143.6651  156.8030 C.3     1  UNL1        0.0199
     32 C         140.4720  144.6684  157.5087 C.3     1  UNL1        0.0034
     33 C         140.3524  146.1262  157.1766 C.3     1  UNL1        0.0196
     34 C         139.8320  148.5672  154.5293 C.2     1  UNL1        0.2224
     35 O         140.5336  147.6377  153.5838 O.2     1  UNL1       -0.2751
     36 N         139.2499  148.0388  155.8068 N.am    1  UNL1       -0.3060
     37 H         138.7894  148.6489  156.4273 H       1  UNL1        0.1494
     38 C         140.8982  150.9300  154.3554 C.3     1  UNL1        0.0101
     39 C         139.7125  150.0251  154.1971 C.3     1  UNL1        0.0851
     40 O         142.8207  139.1031  169.9159 O.3     1  UNL1       -0.4684
     41 C         143.2512  137.6997  170.2245 C.3     1  UNL1        0.2526
     42 O         140.7296  141.1827  169.3659 O.3     1  UNL1       -0.4761
     43 C         141.2043  142.4939  169.9183 C.3     1  UNL1        0.1662
     44 C         140.3816  143.7326  169.7215 C.3     1  UNL1        0.0472
     45 C         142.5017  142.5665  170.6676 C.3     1  UNL1        0.0435
     46 C         143.7994  142.6183  169.9170 C.3     1  UNL1        0.0038
@<TRIPOS>BOND
     1    38    39    1
     2    39    34    1
     3    34    35    2
     4    34    36   am
     5    28    36    1
     6    28    29    1
     7    29    30    1
     8    30    31    1
     9    31    27    1
    10    27    25    1
    11    25    26    1
    12    25    19    1
    13    19    20   ar
    14    20    21   ar
    15    21    22   ar
    16    22     1    1
    17     1     2   am
    18     2     3    2
    19     2     4    1
    20     4     5    1
    21     5     6   ar
    22     6     7   ar
    23     7    40    1
    24    40    41    1
    25     7     8   ar
    26     8    42    1
    27    42    43    1
    28    43    44    1
    29    43    45    1
    30    45    46    1
    31     8     9   ar
    32     9    10   ar
    33    10    11    1
    34    11    12    1
    35    12    13   ar
    36    13    14   ar
    37    14    15   ar
    38    15    16    1
    39    15    17   ar
    40    17    18   ar
    41    22    23   ar
    42    23    24   ar
    43    31    32    1
    44    32    33    1
    45    33    28    1
    46    24    19   ar
    47    11     1    1
    48    18    12   ar
    49    10     5   ar
    50    36    37    1
