@<TRIPOS>MOLECULE
*****
 31 33 0 0 0
SMALL
GASTEIGER

@<TRIPOS>ATOM
      1 N         140.1282  143.0565  167.7439 N.am    1  UNL1       -0.2749
      2 C         140.6312  142.6963  166.3775 C.2     1  UNL1        0.2559
      3 O         141.6819  141.6374  166.2202 O.2     1  UNL1       -0.2692
      4 H         139.4386  143.7515  167.8472 H       1  UNL1        0.1557
      5 C         140.2669  141.0027  169.4492 C.ar    1  UNL1        0.0740
      6 C         141.0669  140.6992  170.6812 C.ar    1  UNL1        0.0133
      7 C         141.9702  141.8669  170.9466 C.ar    1  UNL1        0.0368
      8 S         141.7285  142.8921  169.8786 S.2     1  UNL1       -0.0715
      9 C         140.6758  142.3579  168.9531 C.ar    1  UNL1        0.0854
     10 C         138.3291  138.8309  166.7513 C.2     1  UNL1        0.4076
     11 O         137.1819  138.3187  167.5708 O.2     1  UNL1       -0.2260
     12 N         139.3574  139.7256  167.3775 N.am    1  UNL1       -0.2174
     13 C         139.2385  140.1080  168.8231 C.2     1  UNL1        0.2557
     14 O         138.0913  139.5958  169.6425 O.2     1  UNL1       -0.2696
     15 H         140.1104  140.0618  166.8397 H       1  UNL1        0.1612
     16 O         138.4480  138.4485  165.3058 O.3     1  UNL1       -0.4344
     17 C         137.8746  140.7044  164.1518 C.3     1  UNL1        0.0513
     18 C         138.7535  139.4952  164.2758 C.3     1  UNL1        0.2102
     19 C         140.0835  143.3949  165.1684 C.ar    1  UNL1        0.0832
     20 C         138.8681  144.2733  165.1326 C.ar    1  UNL1        0.0117
     21 C         138.6885  144.7591  163.7249 C.ar    1  UNL1        0.0117
     22 C         139.7929  144.1809  162.8906 C.ar    1  UNL1        0.0831
     23 S         140.6551  143.3379  163.7827 S.2     1  UNL1       -0.0779
     24 C         139.9990  144.4063  161.4220 C.2     1  UNL1        0.2550
     25 O         140.7261  145.6288  160.9456 O.2     1  UNL1       -0.2694
     26 N         139.4781  143.4092  160.4298 N.am    1  UNL1       -0.2757
     27 C         139.6842  143.6345  158.9613 C.3     1  UNL1        0.0937
     28 C         139.1632  142.6374  157.9692 C.3     1  UNL1        0.0216
     29 C         138.4362  141.4149  158.4456 C.3     1  UNL1        0.0035
     30 C         138.2301  141.1896  159.9141 C.3     1  UNL1        0.0216
     31 C         138.7511  142.1867  160.9063 C.3     1  UNL1        0.0937
@<TRIPOS>BOND
     1    17    18    1
     2    18    16    1
     3    16    10    1
     4    10    11    2
     5    10    12   am
     6    12    13   am
     7    13    14    2
     8    13     5    1
     9     5     6   ar
    10     6     7   ar
    11     7     8   ar
    12     8     9   ar
    13     9     1    1
    14     1     2   am
    15     2     3    2
    16     2    19    1
    17    19    20   ar
    18    20    21   ar
    19    21    22   ar
    20    22    24    1
    21    24    25    2
    22    24    26   am
    23    26    27    1
    24    27    28    1
    25    28    29    1
    26    29    30    1
    27    30    31    1
    28    22    23   ar
    29     9     5   ar
    30    23    19   ar
    31    31    26    1
    32    12    15    1
    33     1     4    1
@<TRIPOS>MOLECULE
*****
 31 33 0 0 0
SMALL
GASTEIGER

@<TRIPOS>ATOM
      1 N         139.1891  140.3082  161.0207 N.am    1  UNL1       -0.2749
      2 C         138.2634  140.5040  162.1846 C.2     1  UNL1        0.2559
      3 O         137.1042  141.4491  162.0701 O.2     1  UNL1       -0.2692
      4 H         139.9499  139.6879  161.0958 H       1  UNL1        0.1557
      5 C         139.2249  142.5150  159.5127 C.ar    1  UNL1        0.0740
      6 C         138.8476  142.8387  158.0975 C.ar    1  UNL1        0.0133
      7 C         138.3452  141.5811  157.4524 C.ar    1  UNL1        0.0368
      8 S         138.4120  140.4801  158.4689 S.2     1  UNL1       -0.0715
      9 C         138.9557  141.0573  159.7422 C.ar    1  UNL1        0.0854
     10 C         141.8034  144.5125  161.7734 C.2     1  UNL1        0.4076
     11 O         140.8749  145.4084  162.5383 O.2     1  UNL1       -0.2260
     12 N         141.2534  143.5480  160.7649 N.am    1  UNL1       -0.2174
     13 C         139.7749  143.4795  160.5212 C.2     1  UNL1        0.2557
     14 O         138.8464  144.3754  161.2862 O.2     1  UNL1       -0.2696
     15 H         141.8628  142.9599  160.2628 H       1  UNL1        0.1612
     16 O         143.2819  144.5810  162.0170 O.3     1  UNL1       -0.4344
     17 C         144.0291  143.9927  164.4348 C.3     1  UNL1        0.0513
     18 C         143.8021  145.0107  163.3567 C.3     1  UNL1        0.2102
     19 C         138.4970  139.7548  163.4630 C.ar    1  UNL1        0.0832
     20 C         139.0542  138.3673  163.5826 C.ar    1  UNL1        0.0117
     21 C         139.1158  138.0166  165.0397 C.ar    1  UNL1        0.0117
     22 C         138.5968  139.1874  165.8206 C.ar    1  UNL1        0.0831
     23 S         138.2143  140.2617  164.8462 S.2     1  UNL1       -0.0779
     24 C         138.4806  139.2695  167.3138 C.2     1  UNL1        0.2550
     25 O         137.4686  138.4290  168.0347 O.2     1  UNL1       -0.2694
     26 N         139.3763  140.1920  168.0862 N.am    1  UNL1       -0.2757
     27 C         139.2602  140.2741  169.5794 C.3     1  UNL1        0.0937
     28 C         140.1559  141.1966  170.3518 C.3     1  UNL1        0.0216
     29 C         141.1678  142.0370  169.6309 C.3     1  UNL1        0.0035
     30 C         141.2840  141.9550  168.1377 C.3     1  UNL1        0.0216
     31 C         140.3883  141.0324  167.3654 C.3     1  UNL1        0.0937
@<TRIPOS>BOND
     1    17    18    1
     2    18    16    1
     3    16    10    1
     4    10    11    2
     5    10    12   am
     6    12    13   am
     7    13    14    2
     8    13     5    1
     9     5     6   ar
    10     6     7   ar
    11     7     8   ar
    12     8     9   ar
    13     9     1    1
    14     1     2   am
    15     2     3    2
    16     2    19    1
    17    19    20   ar
    18    20    21   ar
    19    21    22   ar
    20    22    24    1
    21    24    25    2
    22    24    26   am
    23    26    27    1
    24    27    28    1
    25    28    29    1
    26    29    30    1
    27    30    31    1
    28    22    23   ar
    29     9     5   ar
    30    23    19   ar
    31    31    26    1
    32    12    15    1
    33     1     4    1
@<TRIPOS>MOLECULE
*****
 31 33 0 0 0
SMALL
GASTEIGER

@<TRIPOS>ATOM
      1 N         139.7174  140.1686  160.9005 N.am    1  UNL1       -0.2749
      2 C         138.5974  139.5141  161.6537 C.2     1  UNL1        0.2559
      3 O         137.2462  139.3753  161.0174 O.2     1  UNL1       -0.2692
      4 H         140.6042  140.2597  161.3181 H       1  UNL1        0.1557
      5 C         139.2102  142.1096  159.1340 C.ar    1  UNL1        0.0740
      6 C         139.0439  142.1712  157.6445 C.ar    1  UNL1        0.0133
      7 C         139.2171  140.7839  157.1010 C.ar    1  UNL1        0.0368
      8 S         139.4905  139.8649  158.2545 S.2     1  UNL1       -0.0715
      9 C         139.4862  140.6842  159.5110 C.ar    1  UNL1        0.0854
     10 C         138.2671  144.2881  162.3143 C.2     1  UNL1        0.4076
     11 O         138.9302  145.5896  161.9731 O.2     1  UNL1       -0.2260
     12 N         138.3605  143.1282  161.3679 N.am    1  UNL1       -0.2174
     13 C         139.1169  143.2696  160.0803 C.2     1  UNL1        0.2557
     14 O         139.7800  144.5711  159.7391 O.2     1  UNL1       -0.2696
     15 H         137.9252  142.2740  161.5918 H       1  UNL1        0.1612
     16 O         137.5107  144.1467  163.6018 O.3     1  UNL1       -0.4344
     17 C         139.7115  144.0195  164.9766 C.3     1  UNL1        0.0513
     18 C         138.2323  144.2598  164.9119 C.3     1  UNL1        0.2102
     19 C         138.8287  138.9985  163.0432 C.ar    1  UNL1        0.0832
     20 C         139.5761  137.7499  163.4073 C.ar    1  UNL1        0.0117
     21 C         139.5625  137.6207  164.9016 C.ar    1  UNL1        0.0117
     22 C         138.8067  138.7894  165.4611 C.ar    1  UNL1        0.0831
     23 S         138.3532  139.6409  164.3125 S.2     1  UNL1       -0.0779
     24 C         138.5495  139.0592  166.9140 C.2     1  UNL1        0.2550
     25 O         137.4357  138.3476  167.6233 O.2     1  UNL1       -0.2694
     26 N         139.4061  140.0406  167.6577 N.am    1  UNL1       -0.2757
     27 C         139.1490  140.3104  169.1106 C.3     1  UNL1        0.0937
     28 C         140.0056  141.2918  169.8543 C.3     1  UNL1        0.0216
     29 C         141.1194  142.0034  169.1450 C.3     1  UNL1        0.0035
     30 C         141.3766  141.7336  167.6920 C.3     1  UNL1        0.0216
     31 C         140.5199  140.7522  166.9484 C.3     1  UNL1        0.0937
@<TRIPOS>BOND
     1    17    18    1
     2    18    16    1
     3    16    10    1
     4    10    11    2
     5    10    12   am
     6    12    13   am
     7    13    14    2
     8    13     5    1
     9     5     6   ar
    10     6     7   ar
    11     7     8   ar
    12     8     9   ar
    13     9     1    1
    14     1     2   am
    15     2     3    2
    16     2    19    1
    17    19    20   ar
    18    20    21   ar
    19    21    22   ar
    20    22    24    1
    21    24    25    2
    22    24    26   am
    23    26    27    1
    24    27    28    1
    25    28    29    1
    26    29    30    1
    27    30    31    1
    28    22    23   ar
    29     9     5   ar
    30    23    19   ar
    31    31    26    1
    32    12    15    1
    33     1     4    1
@<TRIPOS>MOLECULE
*****
 31 33 0 0 0
SMALL
GASTEIGER

@<TRIPOS>ATOM
      1 N         142.4765  142.6383  160.4657 N.am    1  UNL1       -0.2749
      2 C         143.1514  143.1509  161.7033 C.2     1  UNL1        0.2559
      3 O         143.3706  144.6239  161.8827 O.2     1  UNL1       -0.2692
      4 H         142.3327  141.6715  160.3480 H       1  UNL1        0.1557
      5 C         140.7673  144.4218  159.4444 C.ar    1  UNL1        0.0740
      6 C         140.7103  145.2363  158.1862 C.ar    1  UNL1        0.0133
      7 C         141.9285  144.9166  157.3714 C.ar    1  UNL1        0.0368
      8 S         142.7384  143.9045  158.1262 S.2     1  UNL1       -0.0715
      9 C         142.0207  143.5987  159.4074 C.ar    1  UNL1        0.0854
     10 C         137.9856  143.1803  161.9882 C.2     1  UNL1        0.4076
     11 O         137.7141  144.4436  162.7501 O.2     1  UNL1       -0.2260
     12 N         139.0033  143.1731  160.8863 N.am    1  UNL1       -0.2174
     13 C         139.7495  144.4291  160.5463 C.2     1  UNL1        0.2557
     14 O         139.4780  145.6924  161.3082 O.2     1  UNL1       -0.2696
     15 H         139.1815  142.3440  160.3863 H       1  UNL1        0.1612
     16 O         137.2394  141.9243  162.3282 O.3     1  UNL1       -0.4344
     17 C         138.2005  141.3129  164.6632 C.3     1  UNL1        0.0513
     18 C         137.8489  140.9186  163.2594 C.3     1  UNL1        0.2102
     19 C         143.6072  142.1905  162.7615 C.ar    1  UNL1        0.0832
     20 C         145.0242  141.7721  163.0214 C.ar    1  UNL1        0.0117
     21 C         145.0187  140.8029  164.1661 C.ar    1  UNL1        0.0117
     22 C         143.5985  140.6222  164.6138 C.ar    1  UNL1        0.0831
     23 S         142.7262  141.4797  163.7457 S.2     1  UNL1       -0.0779
     24 C         143.1325  139.7390  165.7331 C.2     1  UNL1        0.2550
     25 O         142.8725  138.2833  165.4813 O.2     1  UNL1       -0.2694
     26 N         142.9265  140.3115  167.1042 N.am    1  UNL1       -0.2757
     27 C         142.4605  139.4283  168.2234 C.3     1  UNL1        0.0937
     28 C         142.2545  140.0008  169.5945 C.3     1  UNL1        0.0216
     29 C         142.5145  141.4564  169.8463 C.3     1  UNL1        0.0035
     30 C         142.9805  142.3396  168.7270 C.3     1  UNL1        0.0216
     31 C         143.1865  141.7671  167.3560 C.3     1  UNL1        0.0937
@<TRIPOS>BOND
     1    17    18    1
     2    18    16    1
     3    16    10    1
     4    10    11    2
     5    10    12   am
     6    12    13   am
     7    13    14    2
     8    13     5    1
     9     5     6   ar
    10     6     7   ar
    11     7     8   ar
    12     8     9   ar
    13     9     1    1
    14     1     2   am
    15     2     3    2
    16     2    19    1
    17    19    20   ar
    18    20    21   ar
    19    21    22   ar
    20    22    24    1
    21    24    25    2
    22    24    26   am
    23    26    27    1
    24    27    28    1
    25    28    29    1
    26    29    30    1
    27    30    31    1
    28    22    23   ar
    29     9     5   ar
    30    23    19   ar
    31    31    26    1
    32    12    15    1
    33     1     4    1
@<TRIPOS>MOLECULE
*****
 31 33 0 0 0
SMALL
GASTEIGER

@<TRIPOS>ATOM
      1 N         139.8095  140.1612  161.6459 N.am    1  UNL1       -0.2749
      2 C         138.8088  140.1395  162.7630 C.2     1  UNL1        0.2559
      3 O         137.3562  140.3763  162.4734 O.2     1  UNL1       -0.2692
      4 H         140.7629  140.0058  161.8360 H       1  UNL1        0.1557
      5 C         138.9554  141.7490  159.6723 C.ar    1  UNL1        0.0740
      6 C         138.5781  141.5450  158.2350 C.ar    1  UNL1        0.0133
      7 C         138.7471  140.0897  157.9134 C.ar    1  UNL1        0.0368
      8 S         139.2290  139.3941  159.1520 S.2     1  UNL1       -0.0715
      9 C         139.3578  140.4197  160.2391 C.ar    1  UNL1        0.0854
     10 C         138.2686  144.4418  162.5055 C.2     1  UNL1        0.4076
     11 O         138.8919  145.6616  161.8942 O.2     1  UNL1       -0.2260
     12 N         138.2898  143.1376  161.7648 N.am    1  UNL1       -0.2174
     13 C         138.9343  143.0532  160.4129 C.2     1  UNL1        0.2557
     14 O         139.5576  144.2730  159.8017 O.2     1  UNL1       -0.2696
     15 H         137.8807  142.3370  162.1659 H       1  UNL1        0.1612
     16 O         137.6241  144.5262  163.8573 O.3     1  UNL1       -0.4344
     17 C         139.8087  144.0201  165.1693 C.3     1  UNL1        0.0513
     18 C         138.4720  144.6951  165.0831 C.3     1  UNL1        0.2102
     19 C         139.2607  139.8810  164.1698 C.ar    1  UNL1        0.0832
     20 C         138.4664  139.1893  165.2380 C.ar    1  UNL1        0.0117
     21 C         139.3010  139.1496  166.4837 C.ar    1  UNL1        0.0117
     22 C         140.6110  139.8168  166.1855 C.ar    1  UNL1        0.0831
     23 S         140.5860  140.2688  164.7555 S.2     1  UNL1       -0.0779
     24 C         141.7465  139.9998  167.1483 C.2     1  UNL1        0.2550
     25 O         142.9071  139.0498  167.1285 O.2     1  UNL1       -0.2694
     26 N         141.7214  141.1329  168.1310 N.am    1  UNL1       -0.2757
     27 C         142.8570  141.3159  169.0938 C.3     1  UNL1        0.0937
     28 C         142.8319  142.4489  170.0764 C.3     1  UNL1        0.0216
     29 C         141.6713  143.3990  170.0962 C.3     1  UNL1        0.0035
     30 C         140.5357  143.2160  169.1334 C.3     1  UNL1        0.0216
     31 C         140.5608  142.0829  168.1508 C.3     1  UNL1        0.0937
@<TRIPOS>BOND
     1    17    18    1
     2    18    16    1
     3    16    10    1
     4    10    11    2
     5    10    12   am
     6    12    13   am
     7    13    14    2
     8    13     5    1
     9     5     6   ar
    10     6     7   ar
    11     7     8   ar
    12     8     9   ar
    13     9     1    1
    14     1     2   am
    15     2     3    2
    16     2    19    1
    17    19    20   ar
    18    20    21   ar
    19    21    22   ar
    20    22    24    1
    21    24    25    2
    22    24    26   am
    23    26    27    1
    24    27    28    1
    25    28    29    1
    26    29    30    1
    27    30    31    1
    28    22    23   ar
    29     9     5   ar
    30    23    19   ar
    31    31    26    1
    32    12    15    1
    33     1     4    1
@<TRIPOS>MOLECULE
*****
 31 33 0 0 0
SMALL
GASTEIGER

@<TRIPOS>ATOM
      1 N         142.6088  141.7496  161.5814 N.am    1  UNL1       -0.2749
      2 C         141.7822  140.5009  161.6685 C.2     1  UNL1        0.2559
      3 O         140.8861  140.1138  160.5296 O.2     1  UNL1       -0.2692
      4 H         143.1970  142.0036  162.3289 H       1  UNL1        0.1557
      5 C         141.4451  143.5809  160.0202 C.ar    1  UNL1        0.0740
      6 C         141.7815  144.2234  158.7072 C.ar    1  UNL1        0.0133
      7 C         143.0835  143.6507  158.2310 C.ar    1  UNL1        0.0368
      8 S         143.5519  142.6544  159.2497 S.2     1  UNL1       -0.0715
      9 C         142.5393  142.6112  160.3555 C.ar    1  UNL1        0.0854
     10 C         138.0776  143.0203  162.0439 C.2     1  UNL1        0.4076
     11 O         137.7946  144.4159  162.5154 O.2     1  UNL1       -0.2260
     12 N         139.2945  142.7421  161.2122 N.am    1  UNL1       -0.2174
     13 C         140.2283  143.8593  160.8519 C.2     1  UNL1        0.2557
     14 O         139.9453  145.2548  161.3235 O.2     1  UNL1       -0.2696
     15 H         139.4803  141.8261  160.9027 H       1  UNL1        0.1612
     16 O         137.1438  141.9031  162.4041 O.3     1  UNL1       -0.4344
     17 C         138.5810  140.9672  164.3556 C.3     1  UNL1        0.0513
     18 C         137.6420  140.7391  163.2084 C.3     1  UNL1        0.2102
     19 C         141.8518  139.6393  162.8944 C.ar    1  UNL1        0.0832
     20 C         141.3091  138.2470  163.0255 C.ar    1  UNL1        0.0117
     21 C         141.5981  137.7660  164.4165 C.ar    1  UNL1        0.0117
     22 C         142.3195  138.8610  165.1451 C.ar    1  UNL1        0.0831
     23 S         142.4762  140.0187  164.2044 S.2     1  UNL1       -0.0779
     24 C         142.7997  138.8075  166.5651 C.2     1  UNL1        0.2550
     25 O         144.1278  138.1878  166.8849 O.2     1  UNL1       -0.2694
     26 N         141.9519  139.3738  167.6655 N.am    1  UNL1       -0.2757
     27 C         142.4322  139.3204  169.0854 C.3     1  UNL1        0.0937
     28 C         141.5844  139.8867  170.1857 C.3     1  UNL1        0.0216
     29 C         140.2564  140.5064  169.8659 C.3     1  UNL1        0.0035
     30 C         139.7761  140.5598  168.4459 C.3     1  UNL1        0.0216
     31 C         140.6239  139.9935  167.3457 C.3     1  UNL1        0.0937
@<TRIPOS>BOND
     1    17    18    1
     2    18    16    1
     3    16    10    1
     4    10    11    2
     5    10    12   am
     6    12    13   am
     7    13    14    2
     8    13     5    1
     9     5     6   ar
    10     6     7   ar
    11     7     8   ar
    12     8     9   ar
    13     9     1    1
    14     1     2   am
    15     2     3    2
    16     2    19    1
    17    19    20   ar
    18    20    21   ar
    19    21    22   ar
    20    22    24    1
    21    24    25    2
    22    24    26   am
    23    26    27    1
    24    27    28    1
    25    28    29    1
    26    29    30    1
    27    30    31    1
    28    22    23   ar
    29     9     5   ar
    30    23    19   ar
    31    31    26    1
    32    12    15    1
    33     1     4    1
@<TRIPOS>MOLECULE
*****
 31 33 0 0 0
SMALL
GASTEIGER

@<TRIPOS>ATOM
      1 N         141.9927  139.5496  160.5570 N.am    1  UNL1       -0.2749
      2 C         141.8297  138.6129  161.7171 C.2     1  UNL1        0.2559
      3 O         140.8342  137.4933  161.6430 O.2     1  UNL1       -0.2692
      4 H         142.6461  140.2845  160.6057 H       1  UNL1        0.1557
      5 C         139.7067  139.7086  159.1807 C.ar    1  UNL1        0.0740
      6 C         139.2834  139.3631  157.7838 C.ar    1  UNL1        0.0133
      7 C         140.4755  138.8078  157.0623 C.ar    1  UNL1        0.0368
      8 S         141.6355  138.8100  158.0133 S.2     1  UNL1       -0.0715
      9 C         141.1603  139.3668  159.3226 C.ar    1  UNL1        0.0854
     10 C         138.0274  142.3434  161.6277 C.2     1  UNL1        0.4076
     11 O         137.0773  141.4626  162.3837 O.2     1  UNL1       -0.2260
     12 N         138.9038  141.7587  160.5601 N.am    1  UNL1       -0.2174
     13 C         138.8302  140.2933  160.2484 C.2     1  UNL1        0.2557
     14 O         137.8800  139.4125  161.0044 O.2     1  UNL1       -0.2696
     15 H         139.5275  142.3367  160.0639 H       1  UNL1        0.1612
     16 O         138.1011  143.8088  161.9394 O.3     1  UNL1       -0.4344
     17 C         138.2973  144.3767  164.4670 C.3     1  UNL1        0.0513
     18 C         138.9165  144.2879  163.1037 C.3     1  UNL1        0.2102
     19 C         142.6622  138.7958  162.9515 C.ar    1  UNL1        0.0832
     20 C         144.0146  139.4416  163.0151 C.ar    1  UNL1        0.0117
     21 C         144.4766  139.4099  164.4418 C.ar    1  UNL1        0.0117
     22 C         143.4098  138.7446  165.2599 C.ar    1  UNL1        0.0831
     23 S         142.2884  138.3651  164.3388 S.2     1  UNL1       -0.0779
     24 C         143.4562  138.5015  166.7393 C.2     1  UNL1        0.2550
     25 O         144.3829  137.4640  167.3002 O.2     1  UNL1       -0.2694
     26 N         142.5758  139.2960  167.6580 N.am    1  UNL1       -0.2757
     27 C         142.6221  139.0529  169.1374 C.3     1  UNL1        0.0937
     28 C         141.7418  139.8473  170.0559 C.3     1  UNL1        0.0216
     29 C         140.8150  140.8849  169.4950 C.3     1  UNL1        0.0035
     30 C         140.7686  141.1280  168.0156 C.3     1  UNL1        0.0216
     31 C         141.6490  140.3335  167.0971 C.3     1  UNL1        0.0937
@<TRIPOS>BOND
     1    17    18    1
     2    18    16    1
     3    16    10    1
     4    10    11    2
     5    10    12   am
     6    12    13   am
     7    13    14    2
     8    13     5    1
     9     5     6   ar
    10     6     7   ar
    11     7     8   ar
    12     8     9   ar
    13     9     1    1
    14     1     2   am
    15     2     3    2
    16     2    19    1
    17    19    20   ar
    18    20    21   ar
    19    21    22   ar
    20    22    24    1
    21    24    25    2
    22    24    26   am
    23    26    27    1
    24    27    28    1
    25    28    29    1
    26    29    30    1
    27    30    31    1
    28    22    23   ar
    29     9     5   ar
    30    23    19   ar
    31    31    26    1
    32    12    15    1
    33     1     4    1
@<TRIPOS>MOLECULE
*****
 31 33 0 0 0
SMALL
GASTEIGER

@<TRIPOS>ATOM
      1 N         142.2748  144.2564  159.8551 N.am    1  UNL1       -0.2749
      2 C         141.7530  144.6162  161.2146 C.2     1  UNL1        0.2559
      3 O         140.5177  145.4570  161.3454 O.2     1  UNL1       -0.2692
      4 H         143.0856  143.7046  159.7693 H       1  UNL1        0.1557
      5 C         140.2729  144.1930  158.0850 C.ar    1  UNL1        0.0740
      6 C         139.9266  144.9664  156.8473 C.ar    1  UNL1        0.0133
      7 C         141.0012  145.9887  156.6237 C.ar    1  UNL1        0.0368
      8 S         142.0117  145.8472  157.7232 S.2     1  UNL1       -0.0715
      9 C         141.5615  144.7374  158.6264 C.ar    1  UNL1        0.0854
     10 C         138.0722  142.0979  160.6379 C.2     1  UNL1        0.4076
     11 O         137.8681  140.8303  159.8623 O.2     1  UNL1       -0.2260
     12 N         138.8738  143.2187  160.0454 N.am    1  UNL1       -0.2174
     13 C         139.4713  143.0721  158.6774 C.2     1  UNL1        0.2557
     14 O         139.2671  141.8045  157.9018 O.2     1  UNL1       -0.2696
     15 H         139.0078  144.0507  160.5545 H       1  UNL1        0.1612
     16 O         137.4747  142.2445  162.0059 O.3     1  UNL1       -0.4344
     17 C         138.1346  143.2455  164.3108 C.3     1  UNL1        0.0513
     18 C         137.8261  143.4304  162.8546 C.3     1  UNL1        0.2102
     19 C         142.4664  144.1352  162.4433 C.ar    1  UNL1        0.0832
     20 C         143.4471  144.9244  163.2592 C.ar    1  UNL1        0.0117
     21 C         143.9111  144.0575  164.3920 C.ar    1  UNL1        0.0117
     22 C         143.2173  142.7326  164.2762 C.ar    1  UNL1        0.0831
     23 S         142.3244  142.7807  163.0719 S.2     1  UNL1       -0.0779
     24 C         143.3866  141.5648  165.2022 C.2     1  UNL1        0.2550
     25 O         144.4439  140.5369  164.9275 O.2     1  UNL1       -0.2694
     26 N         142.4985  141.4248  166.4030 N.am    1  UNL1       -0.2757
     27 C         142.6678  140.2570  167.3290 C.3     1  UNL1        0.0937
     28 C         141.7798  140.1171  168.5297 C.3     1  UNL1        0.0216
     29 C         140.7224  141.1449  168.8044 C.3     1  UNL1        0.0035
     30 C         140.5531  142.3128  167.8784 C.3     1  UNL1        0.0216
     31 C         141.4411  142.4527  166.6777 C.3     1  UNL1        0.0937
@<TRIPOS>BOND
     1    17    18    1
     2    18    16    1
     3    16    10    1
     4    10    11    2
     5    10    12   am
     6    12    13   am
     7    13    14    2
     8    13     5    1
     9     5     6   ar
    10     6     7   ar
    11     7     8   ar
    12     8     9   ar
    13     9     1    1
    14     1     2   am
    15     2     3    2
    16     2    19    1
    17    19    20   ar
    18    20    21   ar
    19    21    22   ar
    20    22    24    1
    21    24    25    2
    22    24    26   am
    23    26    27    1
    24    27    28    1
    25    28    29    1
    26    29    30    1
    27    30    31    1
    28    22    23   ar
    29     9     5   ar
    30    23    19   ar
    31    31    26    1
    32    12    15    1
    33     1     4    1
@<TRIPOS>MOLECULE
*****
 31 33 0 0 0
SMALL
GASTEIGER

@<TRIPOS>ATOM
      1 N         139.1618  140.2331  161.1345 N.am    1  UNL1       -0.2749
      2 C         140.5967  139.8702  161.3779 C.2     1  UNL1        0.2559
      3 O         141.6460  140.2463  160.3742 O.2     1  UNL1       -0.2692
      4 H         138.4731  139.9862  161.7933 H       1  UNL1        0.1557
      5 C         139.0059  142.4299  159.6197 C.ar    1  UNL1        0.0740
      6 C         138.4646  142.7416  158.2559 C.ar    1  UNL1        0.0133
      7 C         137.9002  141.4764  157.6809 C.ar    1  UNL1        0.0368
      8 S         138.0927  140.3827  158.6892 S.2     1  UNL1       -0.0715
      9 C         138.7761  140.9720  159.8875 C.ar    1  UNL1        0.0854
     10 C         141.8137  144.4366  161.5790 C.2     1  UNL1        0.4076
     11 O         140.9737  145.3547  162.4165 O.2     1  UNL1       -0.2260
     12 N         141.1577  143.4617  160.6467 N.am    1  UNL1       -0.2174
     13 C         139.6618  143.4049  160.5520 C.2     1  UNL1        0.2557
     14 O         138.8218  144.3230  161.3895 O.2     1  UNL1       -0.2696
     15 H         141.7090  142.8591  160.0970 H       1  UNL1        0.1612
     16 O         143.3096  144.4935  161.6737 O.3     1  UNL1       -0.4344
     17 C         143.8243  144.9302  164.1825 C.3     1  UNL1        0.0513
     18 C         143.9960  144.0970  162.9471 C.3     1  UNL1        0.2102
     19 C         140.9824  139.1313  162.6250 C.ar    1  UNL1        0.0832
     20 C         140.6970  137.6882  162.9187 C.ar    1  UNL1        0.0117
     21 C         141.2593  137.3707  164.2726 C.ar    1  UNL1        0.0117
     22 C         141.8923  138.6175  164.8156 C.ar    1  UNL1        0.0831
     23 S         141.7211  139.7056  163.7974 S.2     1  UNL1       -0.0779
     24 C         142.5763  138.7526  166.1437 C.2     1  UNL1        0.2550
     25 O         144.0031  138.3170  166.3002 O.2     1  UNL1       -0.2694
     26 N         141.8335  139.3232  167.3153 N.am    1  UNL1       -0.2757
     27 C         142.5176  139.4583  168.6434 C.3     1  UNL1        0.0937
     28 C         141.7748  140.0289  169.8150 C.3     1  UNL1        0.0216
     29 C         140.3480  140.4645  169.6585 C.3     1  UNL1        0.0035
     30 C         139.6639  140.3294  168.3304 C.3     1  UNL1        0.0216
     31 C         140.4067  139.7588  167.1588 C.3     1  UNL1        0.0937
@<TRIPOS>BOND
     1    17    18    1
     2    18    16    1
     3    16    10    1
     4    10    11    2
     5    10    12   am
     6    12    13   am
     7    13    14    2
     8    13     5    1
     9     5     6   ar
    10     6     7   ar
    11     7     8   ar
    12     8     9   ar
    13     9     1    1
    14     1     2   am
    15     2     3    2
    16     2    19    1
    17    19    20   ar
    18    20    21   ar
    19    21    22   ar
    20    22    24    1
    21    24    25    2
    22    24    26   am
    23    26    27    1
    24    27    28    1
    25    28    29    1
    26    29    30    1
    27    30    31    1
    28    22    23   ar
    29     9     5   ar
    30    23    19   ar
    31    31    26    1
    32    12    15    1
    33     1     4    1
