@<TRIPOS>MOLECULE
*****
 31 35 0 0 0
SMALL
GASTEIGER

@<TRIPOS>ATOM
      1 N         139.5486  141.3031  161.9749 N.ar    1  UNL1       -0.2815
      2 C         138.8469  141.3936  160.6522 C.ar    1  UNL1        0.3316
      3 O         137.6646  140.5760  160.2236 O.2     1  UNL1       -0.2463
      4 N         139.5352  142.4452  159.8334 N.ar    1  UNL1       -0.2765
      5 C         139.1619  142.8639  158.4422 C.3     1  UNL1        0.1352
      6 C         140.6622  143.0046  160.6500 C.ar    1  UNL1        0.0989
      7 C         141.6820  144.0655  160.3594 C.ar    1  UNL1        0.1175
      8 N         142.7100  144.4206  161.3923 N.ar    1  UNL1       -0.2422
      9 C         142.7183  143.7147  162.7159 C.ar    1  UNL1        0.0850
     10 C         143.7465  144.0698  163.7488 C.ar    1  UNL1        0.0488
     11 C         143.7548  143.3640  165.0723 C.ar    1  UNL1        0.1416
     12 F         144.7828  143.7190  166.1052 F       1  UNL1       -0.2041
     13 C         142.7350  142.3030  165.3629 C.ar    1  UNL1        0.0291
     14 C         141.7069  141.9479  164.3300 C.ar    1  UNL1        0.0053
     15 C         141.6986  142.6538  163.0064 C.ar    1  UNL1        0.0352
     16 C         140.6705  142.2987  161.9735 C.ar    1  UNL1        0.0826
     17 C         142.7433  141.5971  166.6864 C.ar    1  UNL1        0.0213
     18 C         142.6179  142.3844  167.9571 C.ar    1  UNL1        0.0029
     19 C         142.6262  141.6785  169.2806 C.ar    1  UNL1        0.0173
     20 CA        142.7599  140.1854  169.3334 C.ar    1  UNL1        0.0885
     21 N         142.8853  139.3982  168.0628 N.ar    1  UNL1       -0.2457
     22 C         142.8770  140.1041  166.7393 C.ar    1  UNL1        0.0986
     23 C         142.7682  139.4795  170.6569 C.3     1  UNL1        0.1829
     24 O         144.0453  139.3586  171.4344 O.3     1  UNL1       -0.3760
     25 H         144.6686  138.7973  170.9472 H       1  UNL1        0.2110
     26 C         138.6858  139.0724  164.6940 C.3     1  UNL1        0.1191
     27 C         138.1603  140.3841  164.1907 C.3     1  UNL1        0.0524
     28 C         139.1912  140.3791  163.1012 C.3     1  UNL1        0.0947
     29 C         139.7167  139.0673  163.6045 C.3     1  UNL1        0.0524
     30 C         137.7697  138.7033  167.0971 C.3     1  UNL1        0.1740
     31 O         138.3283  138.1484  165.8203 O.3     1  UNL1       -0.3534
@<TRIPOS>BOND
     1    30    31    1
     2    26    31    1
     3    26    27    1
     4    27    28    1
     5    28     1    1
     6     1     2   ar
     7     2     3    2
     8     2     4   ar
     9     4     5    1
    10     4     6   ar
    11     6     7   ar
    12     7     8   ar
    13     8     9   ar
    14     9    10   ar
    15    10    11   ar
    16    11    12    1
    17    11    13   ar
    18    13    17    1
    19    17    18   ar
    20    18    19   ar
    21    19    20   ar
    22    20    23    1
    23    23    24    1
    24    20    21   ar
    25    21    22   ar
    26    13    14   ar
    27    14    15   ar
    28    15    16   ar
    29    28    29    1
    30    29    26    1
    31    16     1   ar
    32    16     6   ar
    33    15     9   ar
    34    22    17   ar
    35    24    25    1
@<TRIPOS>MOLECULE
*****
 31 35 0 0 0
SMALL
GASTEIGER

@<TRIPOS>ATOM
      1 N         142.4586  141.3742  167.0835 N.ar    1  UNL1       -0.2815
      2 C         142.6809  142.0018  168.4276 C.ar    1  UNL1        0.3316
      3 O         143.8337  142.8822  168.8098 O.2     1  UNL1       -0.2463
      4 N         141.5480  141.5944  169.3224 N.ar    1  UNL1       -0.2765
      5 C         141.3690  141.9959  170.7565 C.3     1  UNL1        0.1352
      6 C         140.6256  140.7151  168.5313 C.ar    1  UNL1        0.0989
      7 C         139.3459  140.0207  168.8922 C.ar    1  UNL1        0.1175
      8 N         138.6290  139.1903  167.8693 N.ar    1  UNL1       -0.2422
      9 C         139.1918  139.0541  166.4856 C.ar    1  UNL1        0.0850
     10 C         138.4748  138.2236  165.4627 C.ar    1  UNL1        0.0488
     11 C         139.0375  138.0875  164.0789 C.ar    1  UNL1        0.1416
     12 F         138.3206  137.2570  163.0560 F       1  UNL1       -0.2041
     13 C         140.3173  138.7819  163.7181 C.ar    1  UNL1        0.0291
     14 C         141.0342  139.6124  164.7409 C.ar    1  UNL1        0.0053
     15 C         140.4714  139.7485  166.1247 C.ar    1  UNL1        0.0352
     16 C         141.1884  140.5789  167.1476 C.ar    1  UNL1        0.0826
     17 C         140.8801  138.6458  162.3343 C.ar    1  UNL1        0.0213
     18 C         142.2215  138.0064  162.1298 C.ar    1  UNL1        0.0029
     19 C         142.7843  137.8703  160.7460 C.ar    1  UNL1        0.0173
     20 CA        142.0056  138.3735  159.5668 C.ar    1  UNL1        0.0885
     21 N         140.6642  139.0129  159.7714 N.ar    1  UNL1       -0.2457
     22 C         140.1014  139.1490  161.1551 C.ar    1  UNL1        0.0986
     23 C         142.5683  138.2374  158.1830 C.3     1  UNL1        0.1829
     24 O         143.7257  139.0912  157.7567 O.3     1  UNL1       -0.3760
     25 H         143.4490  140.0204  157.7288 H       1  UNL1        0.2110
     26 C         144.6107  141.7183  164.1914 C.3     1  UNL1        0.1191
     27 C         143.8617  142.6708  165.0755 C.3     1  UNL1        0.0524
     28 C         143.3500  141.5168  165.8856 C.3     1  UNL1        0.0947
     29 C         144.0991  140.5641  165.0014 C.3     1  UNL1        0.0524
     30 C         144.9084  142.1523  161.6472 C.3     1  UNL1        0.1740
     31 O         145.5021  141.8609  162.9935 O.3     1  UNL1       -0.3534
@<TRIPOS>BOND
     1    30    31    1
     2    26    31    1
     3    26    27    1
     4    27    28    1
     5    28     1    1
     6     1     2   ar
     7     2     3    2
     8     2     4   ar
     9     4     5    1
    10     4     6   ar
    11     6     7   ar
    12     7     8   ar
    13     8     9   ar
    14     9    10   ar
    15    10    11   ar
    16    11    12    1
    17    11    13   ar
    18    13    17    1
    19    17    18   ar
    20    18    19   ar
    21    19    20   ar
    22    20    23    1
    23    23    24    1
    24    20    21   ar
    25    21    22   ar
    26    13    14   ar
    27    14    15   ar
    28    15    16   ar
    29    28    29    1
    30    29    26    1
    31    16     1   ar
    32    16     6   ar
    33    15     9   ar
    34    22    17   ar
    35    24    25    1
@<TRIPOS>MOLECULE
*****
 31 35 0 0 0
SMALL
GASTEIGER

@<TRIPOS>ATOM
      1 N         142.7322  142.2632  161.2543 N.ar    1  UNL1       -0.2815
      2 C         143.3145  142.3923  159.8779 C.ar    1  UNL1        0.3316
      3 O         144.4053  141.5412  159.2986 O.2     1  UNL1       -0.2463
      4 N         142.6143  143.5221  159.1827 N.ar    1  UNL1       -0.2765
      5 C         142.8821  143.9992  157.7860 C.3     1  UNL1        0.1352
      6 C         141.5994  144.0912  160.1294 C.ar    1  UNL1        0.0989
      7 C         140.6183  145.2174  159.9909 C.ar    1  UNL1        0.1175
      8 N         139.7101  145.5654  161.1328 N.ar    1  UNL1       -0.2422
      9 C         139.7830  144.7873  162.4132 C.ar    1  UNL1        0.0850
     10 C         138.8747  145.1354  163.5551 C.ar    1  UNL1        0.0488
     11 C         138.9476  144.3573  164.8354 C.ar    1  UNL1        0.1416
     12 F         138.0394  144.7053  165.9773 F       1  UNL1       -0.2041
     13 C         139.9287  143.2311  164.9738 C.ar    1  UNL1        0.0291
     14 C         140.8370  142.8830  163.8319 C.ar    1  UNL1        0.0053
     15 C         140.7641  143.6611  162.5516 C.ar    1  UNL1        0.0352
     16 C         141.6723  143.3131  161.4097 C.ar    1  UNL1        0.0826
     17 C         140.0016  142.4529  166.2541 C.ar    1  UNL1        0.0213
     18 C         140.4730  143.1208  167.5119 C.ar    1  UNL1        0.0029
     19 C         140.5459  142.3427  168.7922 C.ar    1  UNL1        0.0173
     20 CA        140.1474  140.8967  168.8148 C.ar    1  UNL1        0.0885
     21 N         139.6760  140.2289  167.5571 N.ar    1  UNL1       -0.2457
     22 C         139.6032  141.0071  166.2768 C.ar    1  UNL1        0.0986
     23 C         140.2203  140.1186  170.0951 C.3     1  UNL1        0.1829
     24 O         138.9594  139.7176  170.8019 O.3     1  UNL1       -0.3760
     25 H         138.5007  140.5110  171.1199 H       1  UNL1        0.2110
     26 C         143.7132  139.8415  163.7618 C.3     1  UNL1        0.1191
     27 C         144.1409  141.2352  163.4086 C.3     1  UNL1        0.0524
     28 C         143.1386  141.2601  162.2929 C.3     1  UNL1        0.0947
     29 C         142.7109  139.8663  162.6461 C.3     1  UNL1        0.0524
     30 C         143.2687  138.6335  166.0186 C.3     1  UNL1        0.1740
     31 O         144.1196  138.8385  164.8004 O.3     1  UNL1       -0.3534
@<TRIPOS>BOND
     1    30    31    1
     2    26    31    1
     3    26    27    1
     4    27    28    1
     5    28     1    1
     6     1     2   ar
     7     2     3    2
     8     2     4   ar
     9     4     5    1
    10     4     6   ar
    11     6     7   ar
    12     7     8   ar
    13     8     9   ar
    14     9    10   ar
    15    10    11   ar
    16    11    12    1
    17    11    13   ar
    18    13    17    1
    19    17    18   ar
    20    18    19   ar
    21    19    20   ar
    22    20    23    1
    23    23    24    1
    24    20    21   ar
    25    21    22   ar
    26    13    14   ar
    27    14    15   ar
    28    15    16   ar
    29    28    29    1
    30    29    26    1
    31    16     1   ar
    32    16     6   ar
    33    15     9   ar
    34    22    17   ar
    35    24    25    1
@<TRIPOS>MOLECULE
*****
 31 35 0 0 0
SMALL
GASTEIGER

@<TRIPOS>ATOM
      1 N         140.6631  139.5226  162.1092 N.ar    1  UNL1       -0.2815
      2 C         140.4224  138.9875  160.7287 C.ar    1  UNL1        0.3316
      3 O         139.3221  138.0511  160.3255 O.2     1  UNL1       -0.2463
      4 N         141.4751  139.5533  159.8222 N.ar    1  UNL1       -0.2765
      5 C         141.6124  139.2820  158.3534 C.3     1  UNL1        0.1352
      6 C         142.3664  140.4381  160.6424 C.ar    1  UNL1        0.0989
      7 C         143.5701  141.2586  160.2849 C.ar    1  UNL1        0.1175
      8 N         144.2720  142.0601  161.3408 N.ar    1  UNL1       -0.2422
      9 C         143.7701  142.0411  162.7542 C.ar    1  UNL1        0.0850
     10 C         144.4721  142.8426  163.8101 C.ar    1  UNL1        0.0488
     11 C         143.9702  142.8237  165.2235 C.ar    1  UNL1        0.1416
     12 F         144.6721  143.6252  166.2794 F       1  UNL1       -0.2041
     13 C         142.7664  142.0032  165.5811 C.ar    1  UNL1        0.0291
     14 C         142.0646  141.2017  164.5252 C.ar    1  UNL1        0.0053
     15 C         142.5664  141.2206  163.1118 C.ar    1  UNL1        0.0352
     16 C         141.8645  140.4191  162.0559 C.ar    1  UNL1        0.0826
     17 C         142.2646  141.9842  166.9945 C.ar    1  UNL1        0.0213
     18 C         140.9441  142.6118  167.3300 C.ar    1  UNL1        0.0029
     19 C         140.4423  142.5929  168.7435 C.ar    1  UNL1        0.0173
     20 CA        141.2609  141.9463  169.8214 C.ar    1  UNL1        0.0885
     21 N         142.5813  141.3187  169.4858 N.ar    1  UNL1       -0.2457
     22 C         143.0832  141.3377  168.0724 C.ar    1  UNL1        0.0986
     23 C         140.7591  141.9273  171.2348 C.3     1  UNL1        0.1829
     24 O         140.6577  140.6279  171.9773 O.3     1  UNL1       -0.3760
     25 H         139.9852  140.0680  171.5588 H       1  UNL1        0.2110
     26 C         138.6900  138.7806  165.0537 C.3     1  UNL1        0.1191
     27 C         139.8799  138.1545  164.3888 C.3     1  UNL1        0.0524
     28 C         139.8458  139.2153  163.3288 C.3     1  UNL1        0.0947
     29 C         138.6558  139.8414  163.9938 C.3     1  UNL1        0.0524
     30 C         138.1696  139.1673  167.5696 C.3     1  UNL1        0.1740
     31 O         137.8728  138.4732  166.2734 O.3     1  UNL1       -0.3534
@<TRIPOS>BOND
     1    30    31    1
     2    26    31    1
     3    26    27    1
     4    27    28    1
     5    28     1    1
     6     1     2   ar
     7     2     3    2
     8     2     4   ar
     9     4     5    1
    10     4     6   ar
    11     6     7   ar
    12     7     8   ar
    13     8     9   ar
    14     9    10   ar
    15    10    11   ar
    16    11    12    1
    17    11    13   ar
    18    13    17    1
    19    17    18   ar
    20    18    19   ar
    21    19    20   ar
    22    20    23    1
    23    23    24    1
    24    20    21   ar
    25    21    22   ar
    26    13    14   ar
    27    14    15   ar
    28    15    16   ar
    29    28    29    1
    30    29    26    1
    31    16     1   ar
    32    16     6   ar
    33    15     9   ar
    34    22    17   ar
    35    24    25    1
@<TRIPOS>MOLECULE
*****
 31 35 0 0 0
SMALL
GASTEIGER

@<TRIPOS>ATOM
      1 N         140.0614  139.9749  166.6079 N.ar    1  UNL1       -0.2815
      2 C         139.3991  139.8945  167.9514 C.ar    1  UNL1        0.3316
      3 O         138.1591  139.1163  168.2780 O.2     1  UNL1       -0.2463
      4 N         140.1946  140.7291  168.9109 N.ar    1  UNL1       -0.2765
      5 C         139.8898  140.9320  170.3656 C.3     1  UNL1        0.1352
      6 C         141.3485  141.3253  168.1605 C.ar    1  UNL1        0.0989
      7 C         142.4635  142.2323  168.5893 C.ar    1  UNL1        0.1175
      8 N         143.4962  142.6732  167.5948 N.ar    1  UNL1       -0.2422
      9 C         143.4139  142.2071  166.1714 C.ar    1  UNL1        0.0850
     10 C         144.4466  142.6481  165.1769 C.ar    1  UNL1        0.0488
     11 C         144.3643  142.1819  163.7535 C.ar    1  UNL1        0.1416
     12 F         145.3969  142.6228  162.7590 F       1  UNL1       -0.2041
     13 C         143.2492  141.2748  163.3247 C.ar    1  UNL1        0.0291
     14 C         142.2165  140.8339  164.3192 C.ar    1  UNL1        0.0053
     15 C         142.2988  141.3000  165.7426 C.ar    1  UNL1        0.0352
     16 C         141.2662  140.8591  166.7371 C.ar    1  UNL1        0.0826
     17 C         143.1668  140.8087  161.9014 C.ar    1  UNL1        0.0213
     18 C         142.1599  141.4163  160.9702 C.ar    1  UNL1        0.0029
     19 C         142.0775  140.9502  159.5469 C.ar    1  UNL1        0.0173
     20 CA        143.0021  139.8764  159.0546 C.ar    1  UNL1        0.0885
     21 N         144.0090  139.2688  159.9858 N.ar    1  UNL1       -0.2457
     22 C         144.0913  139.7350  161.4091 C.ar    1  UNL1        0.0986
     23 C         142.9197  139.4103  157.6313 C.3     1  UNL1        0.1829
     24 O         143.4464  138.0575  157.2535 O.3     1  UNL1       -0.3760
     25 H         144.4086  138.0397  157.3747 H       1  UNL1        0.2110
     26 C         138.9473  138.3239  163.5835 C.3     1  UNL1        0.1191
     27 C         138.6276  139.6228  164.2622 C.3     1  UNL1        0.0524
     28 C         139.5999  139.2911  165.3552 C.3     1  UNL1        0.0947
     29 C         139.9197  137.9921  164.6764 C.3     1  UNL1        0.0524
     30 C         139.0588  138.0400  161.0034 C.3     1  UNL1        0.1740
     31 O         138.4858  137.6401  162.3307 O.3     1  UNL1       -0.3534
@<TRIPOS>BOND
     1    30    31    1
     2    26    31    1
     3    26    27    1
     4    27    28    1
     5    28     1    1
     6     1     2   ar
     7     2     3    2
     8     2     4   ar
     9     4     5    1
    10     4     6   ar
    11     6     7   ar
    12     7     8   ar
    13     8     9   ar
    14     9    10   ar
    15    10    11   ar
    16    11    12    1
    17    11    13   ar
    18    13    17    1
    19    17    18   ar
    20    18    19   ar
    21    19    20   ar
    22    20    23    1
    23    23    24    1
    24    20    21   ar
    25    21    22   ar
    26    13    14   ar
    27    14    15   ar
    28    15    16   ar
    29    28    29    1
    30    29    26    1
    31    16     1   ar
    32    16     6   ar
    33    15     9   ar
    34    22    17   ar
    35    24    25    1
@<TRIPOS>MOLECULE
*****
 31 35 0 0 0
SMALL
GASTEIGER

@<TRIPOS>ATOM
      1 N         139.9849  140.8529  166.2952 N.ar    1  UNL1       -0.2815
      2 C         139.7046  140.0634  167.5395 C.ar    1  UNL1        0.3316
      3 O         138.5166  139.1780  167.7730 O.2     1  UNL1       -0.2463
      4 N         140.8210  140.3149  168.5092 N.ar    1  UNL1       -0.2765
      5 C         140.9454  139.7250  169.8827 C.3     1  UNL1        0.1352
      6 C         141.7913  141.2597  167.8643 C.ar    1  UNL1        0.0989
      7 C         143.0785  141.8602  168.3462 C.ar    1  UNL1        0.1175
      8 N         143.8490  142.7933  167.4598 N.ar    1  UNL1       -0.2422
      9 C         143.3322  143.1258  166.0915 C.ar    1  UNL1        0.0850
     10 C         144.1027  144.0589  165.2050 C.ar    1  UNL1        0.0488
     11 C         143.5860  144.3914  163.8367 C.ar    1  UNL1        0.1416
     12 F         144.3565  145.3244  162.9503 F       1  UNL1       -0.2041
     13 C         142.2987  143.7908  163.3548 C.ar    1  UNL1        0.0291
     14 C         141.5282  142.8578  164.2412 C.ar    1  UNL1        0.0053
     15 C         142.0450  142.5253  165.6095 C.ar    1  UNL1        0.0352
     16 C         141.2745  141.5922  166.4959 C.ar    1  UNL1        0.0826
     17 C         141.7819  144.1233  161.9864 C.ar    1  UNL1        0.0213
     18 C         142.4798  143.5890  160.7708 C.ar    1  UNL1        0.0029
     19 C         141.9631  143.9215  159.4025 C.ar    1  UNL1        0.0173
     20 CA        140.7484  144.7883  159.2497 C.ar    1  UNL1        0.0885
     21 N         140.0505  145.3225  160.4652 N.ar    1  UNL1       -0.2457
     22 C         140.5673  144.9900  161.8336 C.ar    1  UNL1        0.0986
     23 C         140.2316  145.1208  157.8813 C.3     1  UNL1        0.1829
     24 O         140.4407  146.4935  157.3138 O.3     1  UNL1       -0.3760
     25 H         139.9411  147.1394  157.8373 H       1  UNL1        0.2110
     26 C         137.9121  140.9557  163.3275 C.3     1  UNL1        0.1191
     27 C         138.0601  141.8148  164.5482 C.3     1  UNL1        0.0524
     28 C         139.1263  140.8955  165.0660 C.3     1  UNL1        0.0947
     29 C         138.9783  140.0363  163.8452 C.3     1  UNL1        0.0524
     30 C         137.4992  140.3005  160.8475 C.3     1  UNL1        0.1740
     31 O         137.0535  140.9983  162.0983 O.3     1  UNL1       -0.3534
@<TRIPOS>BOND
     1    30    31    1
     2    26    31    1
     3    26    27    1
     4    27    28    1
     5    28     1    1
     6     1     2   ar
     7     2     3    2
     8     2     4   ar
     9     4     5    1
    10     4     6   ar
    11     6     7   ar
    12     7     8   ar
    13     8     9   ar
    14     9    10   ar
    15    10    11   ar
    16    11    12    1
    17    11    13   ar
    18    13    17    1
    19    17    18   ar
    20    18    19   ar
    21    19    20   ar
    22    20    23    1
    23    23    24    1
    24    20    21   ar
    25    21    22   ar
    26    13    14   ar
    27    14    15   ar
    28    15    16   ar
    29    28    29    1
    30    29    26    1
    31    16     1   ar
    32    16     6   ar
    33    15     9   ar
    34    22    17   ar
    35    24    25    1
@<TRIPOS>MOLECULE
*****
 31 35 0 0 0
SMALL
GASTEIGER

@<TRIPOS>ATOM
      1 N         142.9014  139.6901  166.0937 N.ar    1  UNL1       -0.2815
      2 C         143.2731  138.7738  167.2217 C.ar    1  UNL1        0.3316
      3 O         144.1841  137.5858  167.1290 O.2     1  UNL1       -0.2463
      4 N         142.5739  139.2543  168.4587 N.ar    1  UNL1       -0.2765
      5 C         142.6629  138.6311  169.8202 C.3     1  UNL1        0.1352
      6 C         141.7701  140.4675  168.0953 C.ar    1  UNL1        0.0989
      7 C         140.8799  141.3617  168.9064 C.ar    1  UNL1        0.1175
      8 N         140.1922  142.5252  168.2559 N.ar    1  UNL1       -0.2422
      9 C         140.3947  142.7945  166.7942 C.ar    1  UNL1        0.0850
     10 C         139.7069  143.9581  166.1437 C.ar    1  UNL1        0.0488
     11 C         139.9093  144.2274  164.6820 C.ar    1  UNL1        0.1416
     12 F         139.2216  145.3910  164.0315 F       1  UNL1       -0.2041
     13 C         140.7995  143.3331  163.8709 C.ar    1  UNL1        0.0291
     14 C         141.4872  142.1696  164.5214 C.ar    1  UNL1        0.0053
     15 C         141.2848  141.9003  165.9831 C.ar    1  UNL1        0.0352
     16 C         141.9725  140.7368  166.6336 C.ar    1  UNL1        0.0826
     17 C         141.0019  143.6024  162.4092 C.ar    1  UNL1        0.0213
     18 C         139.8433  143.5059  161.4613 C.ar    1  UNL1        0.0029
     19 C         140.0457  143.7752  159.9996 C.ar    1  UNL1        0.0173
     20 CA        141.4067  144.1411  159.4858 C.ar    1  UNL1        0.0885
     21 N         142.5652  144.2376  160.4337 N.ar    1  UNL1       -0.2457
     22 C         142.3628  143.9683  161.8954 C.ar    1  UNL1        0.0986
     23 C         141.6091  144.4104  158.0242 C.3     1  UNL1        0.1829
     24 O         142.7070  145.3289  157.5758 O.3     1  UNL1       -0.3760
     25 H         142.5202  146.2300  157.8825 H       1  UNL1        0.2110
     26 C         144.0457  139.4220  162.6684 C.3     1  UNL1        0.1191
     27 C         144.4926  140.1863  163.8792 C.3     1  UNL1        0.0524
     28 C         143.3754  139.5791  164.6749 C.3     1  UNL1        0.0947
     29 C         142.9285  138.8147  163.4640 C.3     1  UNL1        0.0524
     30 C         143.8582  140.1187  160.1725 C.3     1  UNL1        0.1740
     31 O         144.5197  139.3111  161.2496 O.3     1  UNL1       -0.3534
@<TRIPOS>BOND
     1    30    31    1
     2    26    31    1
     3    26    27    1
     4    27    28    1
     5    28     1    1
     6     1     2   ar
     7     2     3    2
     8     2     4   ar
     9     4     5    1
    10     4     6   ar
    11     6     7   ar
    12     7     8   ar
    13     8     9   ar
    14     9    10   ar
    15    10    11   ar
    16    11    12    1
    17    11    13   ar
    18    13    17    1
    19    17    18   ar
    20    18    19   ar
    21    19    20   ar
    22    20    23    1
    23    23    24    1
    24    20    21   ar
    25    21    22   ar
    26    13    14   ar
    27    14    15   ar
    28    15    16   ar
    29    28    29    1
    30    29    26    1
    31    16     1   ar
    32    16     6   ar
    33    15     9   ar
    34    22    17   ar
    35    24    25    1
@<TRIPOS>MOLECULE
*****
 31 35 0 0 0
SMALL
GASTEIGER

@<TRIPOS>ATOM
      1 N         142.1047  140.3794  160.8940 N.ar    1  UNL1       -0.2815
      2 C         142.5914  140.1472  159.4943 C.ar    1  UNL1        0.3316
      3 O         143.7838  139.3271  159.1000 O.2     1  UNL1       -0.2463
      4 N         141.6762  140.8793  158.5580 N.ar    1  UNL1       -0.2765
      5 C         141.7928  140.9198  157.0631 C.3     1  UNL1        0.1352
      6 C         140.6240  141.5639  159.3791 C.ar    1  UNL1        0.0989
      7 C         139.4590  142.4287  158.9987 C.ar    1  UNL1        0.1175
      8 N         138.5588  142.9845  160.0620 N.ar    1  UNL1       -0.2422
      9 C         138.8236  142.6754  161.5058 C.ar    1  UNL1        0.0850
     10 C         137.9233  143.2313  162.5691 C.ar    1  UNL1        0.0488
     11 C         138.1881  142.9223  164.0128 C.ar    1  UNL1        0.1416
     12 F         137.2879  143.4780  165.0761 F       1  UNL1       -0.2041
     13 C         139.3532  142.0574  164.3932 C.ar    1  UNL1        0.0291
     14 C         140.2534  141.5016  163.3299 C.ar    1  UNL1        0.0053
     15 C         139.9886  141.8107  161.8862 C.ar    1  UNL1        0.0352
     16 C         140.8888  141.2549  160.8229 C.ar    1  UNL1        0.0826
     17 C         139.6180  141.7484  165.8370 C.ar    1  UNL1        0.0213
     18 C         139.2321  140.4132  166.4012 C.ar    1  UNL1        0.0029
     19 C         139.4969  140.1041  167.8449 C.ar    1  UNL1        0.0173
     20 CA        140.1477  141.1304  168.7244 C.ar    1  UNL1        0.0885
     21 N         140.5336  142.4655  168.1602 N.ar    1  UNL1       -0.2457
     22 C         140.2688  142.7745  166.7165 C.ar    1  UNL1        0.0986
     23 C         140.4125  140.8213  170.1682 C.3     1  UNL1        0.1829
     24 O         140.3933  139.3998  170.6467 O.3     1  UNL1       -0.3760
     25 H         139.4945  139.0438  170.5667 H       1  UNL1        0.2110
     26 C         143.6023  139.0579  163.9148 C.3     1  UNL1        0.1191
     27 C         143.6612  140.3683  163.1873 C.3     1  UNL1        0.0524
     28 C         142.7251  139.8320  162.1453 C.3     1  UNL1        0.0947
     29 C         142.6661  138.5215  162.8727 C.3     1  UNL1        0.0524
     30 C         143.4870  138.6025  166.4701 C.3     1  UNL1        0.1740
     31 O         144.2226  138.5105  165.1661 O.3     1  UNL1       -0.3534
@<TRIPOS>BOND
     1    30    31    1
     2    26    31    1
     3    26    27    1
     4    27    28    1
     5    28     1    1
     6     1     2   ar
     7     2     3    2
     8     2     4   ar
     9     4     5    1
    10     4     6   ar
    11     6     7   ar
    12     7     8   ar
    13     8     9   ar
    14     9    10   ar
    15    10    11   ar
    16    11    12    1
    17    11    13   ar
    18    13    17    1
    19    17    18   ar
    20    18    19   ar
    21    19    20   ar
    22    20    23    1
    23    23    24    1
    24    20    21   ar
    25    21    22   ar
    26    13    14   ar
    27    14    15   ar
    28    15    16   ar
    29    28    29    1
    30    29    26    1
    31    16     1   ar
    32    16     6   ar
    33    15     9   ar
    34    22    17   ar
    35    24    25    1
@<TRIPOS>MOLECULE
*****
 31 35 0 0 0
SMALL
GASTEIGER

@<TRIPOS>ATOM
      1 N         141.1100  143.6767  161.4209 N.ar    1  UNL1       -0.2815
      2 C         141.1067  144.1862  160.0100 C.ar    1  UNL1        0.3316
      3 O         142.0874  145.1560  159.4205 O.2     1  UNL1       -0.2463
      4 N         139.9504  143.5555  159.2922 N.ar    1  UNL1       -0.2765
      5 C         139.5718  143.7839  157.8589 C.3     1  UNL1        0.1352
      6 C         139.2391  142.6562  160.2594 C.ar    1  UNL1        0.0989
      7 C         138.0314  141.7789  160.1121 C.ar    1  UNL1        0.1175
      8 N         137.5404  140.9765  161.2804 N.ar    1  UNL1       -0.2422
      9 C         138.2571  141.0514  162.5960 C.ar    1  UNL1        0.0850
     10 C         137.7660  140.2489  163.7644 C.ar    1  UNL1        0.0488
     11 C         138.4827  140.3239  165.0800 C.ar    1  UNL1        0.1416
     12 F         137.9917  139.5214  166.2483 F       1  UNL1       -0.2041
     13 C         139.6904  141.2013  165.2272 C.ar    1  UNL1        0.0291
     14 C         140.1814  142.0037  164.0589 C.ar    1  UNL1        0.0053
     15 C         139.4647  141.9288  162.7433 C.ar    1  UNL1        0.0352
     16 C         139.9557  142.7312  161.5750 C.ar    1  UNL1        0.0826
     17 C         140.4071  141.2762  166.5428 C.ar    1  UNL1        0.0213
     18 C         141.0711  140.0546  167.1058 C.ar    1  UNL1        0.0029
     19 C         141.7878  140.1296  168.4213 C.ar    1  UNL1        0.0173
     20 CA        141.8404  141.4261  169.1740 C.ar    1  UNL1        0.0885
     21 N         141.1764  142.6476  168.6110 N.ar    1  UNL1       -0.2457
     22 C         140.4597  142.5726  167.2954 C.ar    1  UNL1        0.0986
     23 C         142.5571  141.5010  170.4896 C.3     1  UNL1        0.1829
     24 O         141.8948  142.1505  171.6685 O.3     1  UNL1       -0.3760
     25 H         141.7784  143.0973  171.4929 H       1  UNL1        0.2110
     26 C         143.4871  144.5724  164.0018 C.3     1  UNL1        0.1191
     27 C         143.4521  143.5573  162.8980 C.3     1  UNL1        0.0524
     28 C         142.0946  144.0477  162.4899 C.3     1  UNL1        0.0947
     29 C         142.1295  145.0629  163.5937 C.3     1  UNL1        0.0524
     30 C         145.0097  143.8899  165.9932 C.3     1  UNL1        0.1740
     31 O         144.4717  144.9433  165.0709 O.3     1  UNL1       -0.3534
@<TRIPOS>BOND
     1    30    31    1
     2    26    31    1
     3    26    27    1
     4    27    28    1
     5    28     1    1
     6     1     2   ar
     7     2     3    2
     8     2     4   ar
     9     4     5    1
    10     4     6   ar
    11     6     7   ar
    12     7     8   ar
    13     8     9   ar
    14     9    10   ar
    15    10    11   ar
    16    11    12    1
    17    11    13   ar
    18    13    17    1
    19    17    18   ar
    20    18    19   ar
    21    19    20   ar
    22    20    23    1
    23    23    24    1
    24    20    21   ar
    25    21    22   ar
    26    13    14   ar
    27    14    15   ar
    28    15    16   ar
    29    28    29    1
    30    29    26    1
    31    16     1   ar
    32    16     6   ar
    33    15     9   ar
    34    22    17   ar
    35    24    25    1
