@<TRIPOS>MOLECULE
*****
 23 25 0 0 0
SMALL
GASTEIGER

@<TRIPOS>ATOM
      1 C         139.8663  140.4554  168.0955 C.ar    1  UNL1        0.0218
      2 C         138.7884  139.7098  168.8250 C.ar    1  UNL1        0.0989
      3 N         137.8436  138.8253  168.0669 N.ar    1  UNL1       -0.2426
      4 C         137.9766  138.6863  166.5793 C.ar    1  UNL1        0.0962
      5 C         139.0545  139.4319  165.8497 C.ar    1  UNL1        0.0166
      6 C         139.9994  140.3165  166.6079 C.ar    1  UNL1        0.0006
      7 C         142.1576  140.8218  169.2642 C.ar    1  UNL1        0.1409
      8 C         143.1024  141.7064  170.0224 C.ar    1  UNL1        0.0665
      9 C         142.7009  143.1092  170.3699 C.ar    1  UNL1        0.1432
     10 F         143.6458  143.9938  171.1280 F       1  UNL1       -0.2041
     11 C         141.3545  143.6275  169.9593 C.ar    1  UNL1        0.0298
     12 C         140.4097  142.7429  169.2012 C.ar    1  UNL1        0.0054
     13 C         140.8112  141.3400  168.8536 C.ar    1  UNL1        0.0356
     14 C         142.7811  138.4109  170.0051 C.3     1  UNL1        0.2525
     15 O         142.5592  139.4189  168.9167 O.3     1  UNL1       -0.4714
     16 C         139.1875  139.2930  164.3622 C.3     1  UNL1        0.1179
     17 N         140.5286  139.4569  163.7106 N.am    1  UNL1       -0.3004
     18 C         141.4751  138.2953  163.6400 C.2     1  UNL1        0.2222
     19 O         141.0805  136.9699  164.2210 O.2     1  UNL1       -0.2751
     20 H         140.7875  140.3268  163.3292 H       1  UNL1        0.1497
     21 C         142.8162  138.4592  162.9884 C.3     1  UNL1        0.0765
     22 C         143.7790  138.1112  161.8921 C.3     1  UNL1        0.0096
     23 C         144.1762  139.0910  162.9561 C.3     1  UNL1        0.0096
@<TRIPOS>BOND
     1    14    15    1
     2    15     7    1
     3     7     8   ar
     4     8     9   ar
     5     9    10    1
     6     9    11   ar
     7    11    12   ar
     8    12    13   ar
     9    13     1    1
    10     1     2   ar
    11     2     3   ar
    12     3     4   ar
    13     4     5   ar
    14     5    16    1
    15    16    17    1
    16    17    18   am
    17    18    19    2
    18    18    21    1
    19    21    22    1
    20    22    23    1
    21     5     6   ar
    22    13     7   ar
    23     6     1   ar
    24    23    21    1
    25    17    20    1
@<TRIPOS>MOLECULE
*****
 23 25 0 0 0
SMALL
GASTEIGER

@<TRIPOS>ATOM
      1 C         141.0937  141.9623  166.8030 C.ar    1  UNL1        0.0218
      2 C         141.2064  142.1928  168.2809 C.ar    1  UNL1        0.0989
      3 N         140.4201  141.3430  169.2346 N.ar    1  UNL1       -0.2426
      4 C         139.5211  140.2627  168.7104 C.ar    1  UNL1        0.0962
      5 C         139.4085  140.0321  167.2325 C.ar    1  UNL1        0.0166
      6 C         140.1948  140.8820  166.2788 C.ar    1  UNL1        0.0006
      7 C         141.1674  143.6650  164.8419 C.ar    1  UNL1        0.1409
      8 C         141.9537  144.5148  163.8883 C.ar    1  UNL1        0.0665
      9 C         143.4527  144.5118  163.9420 C.ar    1  UNL1        0.1432
     10 F         144.2391  145.3616  162.9883 F       1  UNL1       -0.2041
     11 C         144.1654  143.6590  164.9493 C.ar    1  UNL1        0.0298
     12 C         143.3791  142.8092  165.9029 C.ar    1  UNL1        0.0054
     13 C         141.8801  142.8122  165.8493 C.ar    1  UNL1        0.0356
     14 C         138.8985  144.8042  165.3933 C.3     1  UNL1        0.2525
     15 O         139.6683  143.6680  164.7883 O.3     1  UNL1       -0.4714
     16 C         138.5096  138.9518  166.7083 C.3     1  UNL1        0.1179
     17 N         138.1757  138.8975  165.2470 N.am    1  UNL1       -0.3004
     18 C         139.0864  138.1792  164.2958 C.2     1  UNL1        0.2222
     19 O         140.3310  137.5153  164.8060 O.2     1  UNL1       -0.2751
     20 H         137.3588  139.3332  164.9121 H       1  UNL1        0.1497
     21 C         138.7526  138.1248  162.8344 C.3     1  UNL1        0.0765
     22 C         139.1902  137.9895  161.4061 C.3     1  UNL1        0.0096
     23 C         137.7367  138.1658  161.7316 C.3     1  UNL1        0.0096
@<TRIPOS>BOND
     1    14    15    1
     2    15     7    1
     3     7     8   ar
     4     8     9   ar
     5     9    10    1
     6     9    11   ar
     7    11    12   ar
     8    12    13   ar
     9    13     1    1
    10     1     2   ar
    11     2     3   ar
    12     3     4   ar
    13     4     5   ar
    14     5    16    1
    15    16    17    1
    16    17    18   am
    17    18    19    2
    18    18    21    1
    19    21    22    1
    20    22    23    1
    21     5     6   ar
    22    13     7   ar
    23     6     1   ar
    24    23    21    1
    25    17    20    1
@<TRIPOS>MOLECULE
*****
 23 25 0 0 0
SMALL
GASTEIGER

@<TRIPOS>ATOM
      1 C         139.4326  139.6304  165.9047 C.ar    1  UNL1        0.0218
      2 C         139.4531  138.2667  165.2804 C.ar    1  UNL1        0.0989
      3 N         138.8072  138.0432  163.9452 N.ar    1  UNL1       -0.2426
      4 C         138.1407  139.1836  163.2342 C.ar    1  UNL1        0.0962
      5 C         138.1201  140.5473  163.8585 C.ar    1  UNL1        0.0166
      6 C         138.7661  140.7707  165.1938 C.ar    1  UNL1        0.0006
      7 C         141.5738  139.8883  167.3534 C.ar    1  UNL1        0.1409
      8 C         142.2197  140.1117  168.6886 C.ar    1  UNL1        0.0665
      9 C         141.3703  140.3005  169.9104 C.ar    1  UNL1        0.1432
     10 F         142.0163  140.5239  171.2457 F       1  UNL1       -0.2041
     11 C         139.8750  140.2660  169.7970 C.ar    1  UNL1        0.0298
     12 C         139.2291  140.0427  168.4618 C.ar    1  UNL1        0.0054
     13 C         140.0785  139.8538  167.2400 C.ar    1  UNL1        0.0356
     14 C         143.2782  138.4746  165.9945 C.3     1  UNL1        0.2525
     15 O         142.4232  139.6994  166.1316 O.3     1  UNL1       -0.4714
     16 C         137.4536  141.6877  163.1476 C.3     1  UNL1        0.1179
     17 N         138.2836  142.7694  162.5224 N.am    1  UNL1       -0.3004
     18 C         138.5698  144.0299  163.2838 C.2     1  UNL1        0.2222
     19 O         138.0260  144.2084  164.6703 O.2     1  UNL1       -0.2751
     20 H         138.6405  142.6522  161.6124 H       1  UNL1        0.1497
     21 C         139.3997  145.1116  162.6586 C.3     1  UNL1        0.0765
     22 C         139.5345  146.2510  161.6923 C.3     1  UNL1        0.0096
     23 C         140.7024  145.8460  162.5419 C.3     1  UNL1        0.0096
@<TRIPOS>BOND
     1    14    15    1
     2    15     7    1
     3     7     8   ar
     4     8     9   ar
     5     9    10    1
     6     9    11   ar
     7    11    12   ar
     8    12    13   ar
     9    13     1    1
    10     1     2   ar
    11     2     3   ar
    12     3     4   ar
    13     4     5   ar
    14     5    16    1
    15    16    17    1
    16    17    18   am
    17    18    19    2
    18    18    21    1
    19    21    22    1
    20    22    23    1
    21     5     6   ar
    22    13     7   ar
    23     6     1   ar
    24    23    21    1
    25    17    20    1
@<TRIPOS>MOLECULE
*****
 23 25 0 0 0
SMALL
GASTEIGER

@<TRIPOS>ATOM
      1 C         139.8533  142.3063  166.2956 C.ar    1  UNL1        0.0218
      2 C         139.2990  140.9410  166.0147 C.ar    1  UNL1        0.0989
      3 N         138.3628  140.7344  164.8611 N.ar    1  UNL1       -0.2426
      4 C         137.9808  141.8931  163.9883 C.ar    1  UNL1        0.0962
      5 C         138.5350  143.2583  164.2692 C.ar    1  UNL1        0.0166
      6 C         139.4713  143.4649  165.4229 C.ar    1  UNL1        0.0006
      7 C         142.2243  142.0903  167.3357 C.ar    1  UNL1        0.1409
      8 C         143.1604  142.2969  168.4893 C.ar    1  UNL1        0.0665
      9 C         142.6618  142.9260  169.7564 C.ar    1  UNL1        0.1432
     10 F         143.5981  143.1326  170.9101 F       1  UNL1       -0.2041
     11 C         141.2271  143.3486  169.8700 C.ar    1  UNL1        0.0298
     12 C         140.2909  143.1420  168.7164 C.ar    1  UNL1        0.0054
     13 C         140.7895  142.5129  167.4492 C.ar    1  UNL1        0.0356
     14 C         143.7021  142.1955  165.2015 C.3     1  UNL1        0.2525
     15 O         142.7228  141.4612  166.0686 O.3     1  UNL1       -0.4714
     16 C         138.1531  144.4170  163.3966 C.3     1  UNL1        0.1179
     17 N         138.6456  144.4843  161.9814 N.am    1  UNL1       -0.3004
     18 C         139.9977  145.0620  161.6845 C.2     1  UNL1        0.2222
     19 O         140.8573  145.5723  162.8028 O.2     1  UNL1       -0.2751
     20 H         138.0814  144.1494  161.2474 H       1  UNL1        0.1497
     21 C         140.4903  145.1294  160.2693 C.3     1  UNL1        0.0765
     22 C         141.5887  144.9391  159.2657 C.3     1  UNL1        0.0096
     23 C         140.2449  145.4362  158.8217 C.3     1  UNL1        0.0096
@<TRIPOS>BOND
     1    14    15    1
     2    15     7    1
     3     7     8   ar
     4     8     9   ar
     5     9    10    1
     6     9    11   ar
     7    11    12   ar
     8    12    13   ar
     9    13     1    1
    10     1     2   ar
    11     2     3   ar
    12     3     4   ar
    13     4     5   ar
    14     5    16    1
    15    16    17    1
    16    17    18   am
    17    18    19    2
    18    18    21    1
    19    21    22    1
    20    22    23    1
    21     5     6   ar
    22    13     7   ar
    23     6     1   ar
    24    23    21    1
    25    17    20    1
@<TRIPOS>MOLECULE
*****
 23 25 0 0 0
SMALL
GASTEIGER

@<TRIPOS>ATOM
      1 C         138.6013  139.7759  165.7294 C.ar    1  UNL1        0.0218
      2 C         137.8128  138.8935  166.6511 C.ar    1  UNL1        0.0989
      3 N         138.0533  138.9491  168.1307 N.ar    1  UNL1       -0.2426
      4 C         139.0823  139.8873  168.6885 C.ar    1  UNL1        0.0962
      5 C         139.8708  140.7697  167.7668 C.ar    1  UNL1        0.0166
      6 C         139.6303  140.7140  166.2872 C.ar    1  UNL1        0.0006
      7 C         137.8227  140.9221  163.5317 C.ar    1  UNL1        0.1409
      8 C         137.5822  140.8663  162.0521 C.ar    1  UNL1        0.0665
      9 C         137.8799  139.6087  161.2908 C.ar    1  UNL1        0.1432
     10 F         137.6395  139.5530  159.8112 F       1  UNL1       -0.2041
     11 C         138.4181  138.4068  162.0089 C.ar    1  UNL1        0.0298
     12 C         138.6586  138.4625  163.4884 C.ar    1  UNL1        0.0054
     13 C         138.3609  139.7202  164.2498 C.ar    1  UNL1        0.0356
     14 C         137.8597  143.5146  163.6965 C.3     1  UNL1        0.2525
     15 O         137.5250  142.1797  164.2930 O.3     1  UNL1       -0.4714
     16 C         140.8997  141.7078  168.3246 C.3     1  UNL1        0.1179
     17 N         141.7885  142.4831  167.3979 N.am    1  UNL1       -0.3004
     18 C         142.9027  141.7892  166.6719 C.2     1  UNL1        0.2222
     19 O         143.1282  140.3199  166.8727 O.2     1  UNL1       -0.2751
     20 H         141.6405  143.4475  167.2661 H       1  UNL1        0.1497
     21 C         143.7915  142.5645  165.7452 C.3     1  UNL1        0.0765
     22 C         144.6592  143.7574  165.4727 C.3     1  UNL1        0.0096
     23 C         144.4632  142.7146  164.4124 C.3     1  UNL1        0.0096
@<TRIPOS>BOND
     1    14    15    1
     2    15     7    1
     3     7     8   ar
     4     8     9   ar
     5     9    10    1
     6     9    11   ar
     7    11    12   ar
     8    12    13   ar
     9    13     1    1
    10     1     2   ar
    11     2     3   ar
    12     3     4   ar
    13     4     5   ar
    14     5    16    1
    15    16    17    1
    16    17    18   am
    17    18    19    2
    18    18    21    1
    19    21    22    1
    20    22    23    1
    21     5     6   ar
    22    13     7   ar
    23     6     1   ar
    24    23    21    1
    25    17    20    1
@<TRIPOS>MOLECULE
*****
 23 25 0 0 0
SMALL
GASTEIGER

@<TRIPOS>ATOM
      1 C         141.3096  142.7861  165.7533 C.ar    1  UNL1        0.0218
      2 C         142.7506  142.5535  165.4077 C.ar    1  UNL1        0.0989
      3 N         143.3635  143.2581  164.2339 N.ar    1  UNL1       -0.2426
      4 C         142.5355  144.1954  163.4057 C.ar    1  UNL1        0.0962
      5 C         141.0945  144.4280  163.7513 C.ar    1  UNL1        0.0166
      6 C         140.4815  143.7233  164.9251 C.ar    1  UNL1        0.0006
      7 C         140.0598  140.7356  166.7450 C.ar    1  UNL1        0.1409
      8 C         139.4469  140.0309  167.9188 C.ar    1  UNL1        0.0665
      9 C         139.4708  140.6721  169.2746 C.ar    1  UNL1        0.1432
     10 F         138.8579  139.9674  170.4485 F       1  UNL1       -0.2041
     11 C         140.1077  142.0179  169.4567 C.ar    1  UNL1        0.0298
     12 C         140.7206  142.7226  168.2829 C.ar    1  UNL1        0.0054
     13 C         140.6966  142.0814  166.9271 C.ar    1  UNL1        0.0356
     14 C         138.7748  140.1040  164.5771 C.3     1  UNL1        0.2525
     15 O         140.0359  140.0944  165.3892 O.3     1  UNL1       -0.4714
     16 C         140.2665  145.3652  162.9231 C.3     1  UNL1        0.1179
     17 N         140.7327  145.7693  161.5559 N.am    1  UNL1       -0.3004
     18 C         140.2055  145.0603  160.3437 C.2     1  UNL1        0.2222
     19 O         139.2121  143.9472  160.4988 O.2     1  UNL1       -0.2751
     20 H         141.3847  146.4999  161.4541 H       1  UNL1        0.1497
     21 C         140.6718  145.4643  158.9765 C.3     1  UNL1        0.0765
     22 C         140.3649  145.9364  157.5862 C.3     1  UNL1        0.0096
     23 C         141.7862  145.6922  157.9987 C.3     1  UNL1        0.0096
@<TRIPOS>BOND
     1    14    15    1
     2    15     7    1
     3     7     8   ar
     4     8     9   ar
     5     9    10    1
     6     9    11   ar
     7    11    12   ar
     8    12    13   ar
     9    13     1    1
    10     1     2   ar
    11     2     3   ar
    12     3     4   ar
    13     4     5   ar
    14     5    16    1
    15    16    17    1
    16    17    18   am
    17    18    19    2
    18    18    21    1
    19    21    22    1
    20    22    23    1
    21     5     6   ar
    22    13     7   ar
    23     6     1   ar
    24    23    21    1
    25    17    20    1
@<TRIPOS>MOLECULE
*****
 23 25 0 0 0
SMALL
GASTEIGER

@<TRIPOS>ATOM
      1 C         139.8129  140.8627  167.3049 C.ar    1  UNL1        0.0218
      2 C         139.1073  139.6315  167.7910 C.ar    1  UNL1        0.0989
      3 N         138.1892  138.8812  166.8722 N.ar    1  UNL1       -0.2426
      4 C         137.9767  139.3621  165.4673 C.ar    1  UNL1        0.0962
      5 C         138.6823  140.5933  164.9813 C.ar    1  UNL1        0.0166
      6 C         139.6004  141.3436  165.9001 C.ar    1  UNL1        0.0006
      7 C         142.2148  141.4157  168.1266 C.ar    1  UNL1        0.1409
      8 C         143.1328  142.1660  169.0454 C.ar    1  UNL1        0.0665
      9 C         142.5671  143.1135  170.0613 C.ar    1  UNL1        0.1432
     10 F         143.4853  143.8638  170.9801 F       1  UNL1       -0.2041
     11 C         141.0834  143.3108  170.1584 C.ar    1  UNL1        0.0298
     12 C         140.1653  142.5606  169.2396 C.ar    1  UNL1        0.0054
     13 C         140.7310  141.6130  168.2237 C.ar    1  UNL1        0.0356
     14 C         142.9297  139.0132  167.4434 C.3     1  UNL1        0.2525
     15 O         142.7805  140.4682  167.1107 O.3     1  UNL1       -0.4714
     16 C         138.4698  141.0742  163.5765 C.3     1  UNL1        0.1179
     17 N         139.3411  142.1585  163.0151 N.am    1  UNL1       -0.3004
     18 C         138.8316  143.5675  162.9416 C.2     1  UNL1        0.2222
     19 O         137.4508  143.8920  163.4295 O.2     1  UNL1       -0.2751
     20 H         140.2474  141.9455  162.6949 H       1  UNL1        0.1497
     21 C         139.7029  144.6517  162.3803 C.3     1  UNL1        0.0765
     22 C         140.6553  145.7916  162.5891 C.3     1  UNL1        0.0096
     23 C         140.2596  145.3900  161.1992 C.3     1  UNL1        0.0096
@<TRIPOS>BOND
     1    14    15    1
     2    15     7    1
     3     7     8   ar
     4     8     9   ar
     5     9    10    1
     6     9    11   ar
     7    11    12   ar
     8    12    13   ar
     9    13     1    1
    10     1     2   ar
    11     2     3   ar
    12     3     4   ar
    13     4     5   ar
    14     5    16    1
    15    16    17    1
    16    17    18   am
    17    18    19    2
    18    18    21    1
    19    21    22    1
    20    22    23    1
    21     5     6   ar
    22    13     7   ar
    23     6     1   ar
    24    23    21    1
    25    17    20    1
@<TRIPOS>MOLECULE
*****
 23 25 0 0 0
SMALL
GASTEIGER

@<TRIPOS>ATOM
      1 C         142.4216  139.9209  165.0016 C.ar    1  UNL1        0.0218
      2 C         143.5774  138.9760  165.1475 C.ar    1  UNL1        0.0989
      3 N         144.9136  139.3299  164.5651 N.ar    1  UNL1       -0.2426
      4 C         145.0942  140.6288  163.8368 C.ar    1  UNL1        0.0962
      5 C         143.9384  141.5737  163.6909 C.ar    1  UNL1        0.0166
      6 C         142.6021  141.2197  164.2733 C.ar    1  UNL1        0.0006
      7 C         140.6756  140.1249  166.9147 C.ar    1  UNL1        0.1409
      8 C         139.3394  139.7709  167.4970 C.ar    1  UNL1        0.0665
      9 C         138.4129  138.8590  166.7487 C.ar    1  UNL1        0.1432
     10 F         137.0766  138.5050  167.3311 F       1  UNL1       -0.2041
     11 C         138.8227  138.3010  165.4180 C.ar    1  UNL1        0.0298
     12 C         140.1589  138.6550  164.8357 C.ar    1  UNL1        0.0054
     13 C         141.0853  139.5669  165.5840 C.ar    1  UNL1        0.0356
     14 C         142.5414  140.4747  168.6885 C.3     1  UNL1        0.2525
     15 O         141.6021  141.0369  167.6630 O.3     1  UNL1       -0.4714
     16 C         144.1188  142.8725  162.9627 C.3     1  UNL1        0.1179
     17 N         142.9817  143.4567  162.1781 N.am    1  UNL1       -0.3004
     18 C         142.2235  144.6328  162.7187 C.2     1  UNL1        0.2222
     19 O         142.6026  145.2246  164.0439 O.2     1  UNL1       -0.2751
     20 H         142.7329  143.0683  161.3084 H       1  UNL1        0.1497
     21 C         141.0864  145.2169  161.9342 C.3     1  UNL1        0.0765
     22 C         140.3265  145.3449  160.6472 C.3     1  UNL1        0.0096
     23 C         139.8766  146.1008  161.8622 C.3     1  UNL1        0.0096
@<TRIPOS>BOND
     1    14    15    1
     2    15     7    1
     3     7     8   ar
     4     8     9   ar
     5     9    10    1
     6     9    11   ar
     7    11    12   ar
     8    12    13   ar
     9    13     1    1
    10     1     2   ar
    11     2     3   ar
    12     3     4   ar
    13     4     5   ar
    14     5    16    1
    15    16    17    1
    16    17    18   am
    17    18    19    2
    18    18    21    1
    19    21    22    1
    20    22    23    1
    21     5     6   ar
    22    13     7   ar
    23     6     1   ar
    24    23    21    1
    25    17    20    1
@<TRIPOS>MOLECULE
*****
 23 25 0 0 0
SMALL
GASTEIGER

@<TRIPOS>ATOM
      1 C         141.3891  141.7556  165.3001 C.ar    1  UNL1        0.0218
      2 C         142.8358  141.4137  165.5009 C.ar    1  UNL1        0.0989
      3 N         143.9025  142.3121  164.9487 N.ar    1  UNL1       -0.2426
      4 C         143.5225  143.5526  164.1956 C.ar    1  UNL1        0.0962
      5 C         142.0759  143.8945  163.9948 C.ar    1  UNL1        0.0166
      6 C         141.0092  142.9960  164.5471 C.ar    1  UNL1        0.0006
      7 C         140.1452  140.7275  167.3362 C.ar    1  UNL1        0.1409
      8 C         139.0785  139.8290  167.8884 C.ar    1  UNL1        0.0665
      9 C         138.1891  139.0602  166.9567 C.ar    1  UNL1        0.1432
     10 F         137.1224  138.1617  167.5090 F       1  UNL1       -0.2041
     11 C         138.3664  139.1898  165.4729 C.ar    1  UNL1        0.0298
     12 C         139.4331  140.0883  164.9207 C.ar    1  UNL1        0.0054
     13 C         140.3224  140.8571  165.8524 C.ar    1  UNL1        0.0356
     14 C         140.5839  142.8184  168.8144 C.3     1  UNL1        0.2525
     15 O         141.0345  141.4963  168.2678 O.3     1  UNL1       -0.4714
     16 C         141.6959  145.1349  163.2418 C.3     1  UNL1        0.1179
     17 N         141.8698  145.1912  161.7530 N.am    1  UNL1       -0.3004
     18 C         140.6738  145.3643  160.8642 C.2     1  UNL1        0.2222
     19 O         139.3041  145.4811  161.4644 O.2     1  UNL1       -0.2751
     20 H         142.7688  145.1145  161.3592 H       1  UNL1        0.1497
     21 C         140.8477  145.4206  159.3755 C.3     1  UNL1        0.0765
     22 C         141.7300  145.6066  158.1767 C.3     1  UNL1        0.0096
     23 C         140.2665  145.3322  157.9955 C.3     1  UNL1        0.0096
@<TRIPOS>BOND
     1    14    15    1
     2    15     7    1
     3     7     8   ar
     4     8     9   ar
     5     9    10    1
     6     9    11   ar
     7    11    12   ar
     8    12    13   ar
     9    13     1    1
    10     1     2   ar
    11     2     3   ar
    12     3     4   ar
    13     4     5   ar
    14     5    16    1
    15    16    17    1
    16    17    18   am
    17    18    19    2
    18    18    21    1
    19    21    22    1
    20    22    23    1
    21     5     6   ar
    22    13     7   ar
    23     6     1   ar
    24    23    21    1
    25    17    20    1
