@<TRIPOS>MOLECULE
*****
 29 32 0 0 0
SMALL
GASTEIGER

@<TRIPOS>ATOM
      1 N         141.6262  140.7720  168.5814 N.3     1  UNL1       -0.2727
      2 C         142.7893  140.1044  169.2534 C.3     1  UNL1        0.0613
      3 C         142.6253  140.2686  170.7353 C.3     1  UNL1        0.0175
      4 C         141.3608  141.0377  170.9792 C.3     1  UNL1        0.0175
      5 C         140.7433  141.3488  169.6481 C.3     1  UNL1        0.0613
      6 C         140.3607  141.5136  168.1970 C.3     1  UNL1        0.0595
      7 C         141.3367  140.8862  167.2463 C.3     1  UNL1        0.1686
      8 C         142.5510  140.1816  167.7745 C.3     1  UNL1        0.0595
      9 C         141.3879  140.8492  167.1025 C.3     1  UNL1        0.0798
     10 C         141.9781  141.9745  166.3054 C.3     1  UNL1        0.0222
     11 C         142.6973  138.8394  165.3008 C.3     1  UNL1        0.0307
     12 C         141.2140  138.7961  165.5198 C.ar    1  UNL1       -0.0245
     13 C         140.3855  137.7480  164.8380 C.ar    1  UNL1       -0.0045
     14 C         138.9021  137.7048  165.0570 C.ar    1  UNL1       -0.0003
     15 C         138.2474  138.7096  165.9578 C.ar    1  UNL1       -0.0003
     16 C         139.0759  139.7578  166.6397 C.ar    1  UNL1       -0.0033
     17 C         140.5593  139.8011  166.4207 C.ar    1  UNL1       -0.0117
     18 O         141.0983  140.9635  165.7673 O.3     1  UNL1       -0.4791
     19 C         140.8524  142.2920  165.1156 C.ar    1  UNL1        0.1385
     20 C         139.6687  143.1189  165.5218 C.ar    1  UNL1        0.0369
     21 C         139.4228  144.4473  164.8702 C.ar    1  UNL1        0.0033
     22 C         140.3605  144.9489  163.8123 C.ar    1  UNL1        0.0047
     23 C         141.5442  144.1219  163.4062 C.ar    1  UNL1        0.0561
     24 C         141.7902  142.7934  164.0578 C.ar    1  UNL1        0.0414
     25 C         142.4820  144.6235  162.3484 C.2     1  UNL1        0.2428
     26 N         141.9470  145.0550  161.0151 N.am    1  UNL1       -0.3253
     27 O         143.9549  144.6936  162.6238 O.2     1  UNL1       -0.2704
     28 H         140.9803  145.0091  160.8343 H       1  UNL1        0.1453
     29 H         142.5625  145.3842  160.3208 H       1  UNL1        0.1453
@<TRIPOS>BOND
     1    11    12    1
     2    12    13   ar
     3    13    14   ar
     4    14    15   ar
     5    15    16   ar
     6    16    17   ar
     7    17     9    1
     8     9    10    1
     9     9     1    1
    10     1     2    1
    11     2     3    1
    12     3     4    1
    13     5     4    1
    14     5     6    1
    15     6     7    1
    16     7    18    1
    17    18    19    1
    18    19    20   ar
    19    20    21   ar
    20    21    22   ar
    21    22    23   ar
    22    23    25    1
    23    25    26   am
    24    25    27    2
    25    23    24   ar
    26     7     8    1
    27    17    12   ar
    28     5     1    1
    29    24    19   ar
    30     8     2    1
    31    26    28    1
    32    26    29    1
@<TRIPOS>MOLECULE
*****
 29 32 0 0 0
SMALL
GASTEIGER

@<TRIPOS>ATOM
      1 N         140.9118  140.5960  168.4697 N.3     1  UNL1       -0.2727
      2 C         139.9195  140.3023  169.5555 C.3     1  UNL1        0.0613
      3 C         140.6597  140.2531  170.8592 C.3     1  UNL1        0.0175
      4 C         142.1096  140.5163  170.5790 C.3     1  UNL1        0.0175
      5 C         142.2655  140.7282  169.1023 C.3     1  UNL1        0.0613
      6 C         142.1235  140.8955  167.6086 C.3     1  UNL1        0.0595
      7 C         140.7141  140.7362  167.1203 C.3     1  UNL1        0.1686
      8 C         139.6121  140.4396  168.0938 C.3     1  UNL1        0.0595
      9 C         140.6045  140.7332  167.0079 C.3     1  UNL1        0.0798
     10 C         140.1318  142.0476  166.4611 C.3     1  UNL1        0.0222
     11 C         138.1925  139.2316  166.0448 C.3     1  UNL1        0.0307
     12 C         139.5638  138.8053  165.6115 C.ar    1  UNL1       -0.0245
     13 C         139.7291  137.6281  164.6966 C.ar    1  UNL1       -0.0045
     14 C         141.1005  137.2018  164.2632 C.ar    1  UNL1       -0.0003
     15 C         142.3064  137.9526  164.7448 C.ar    1  UNL1       -0.0003
     16 C         142.1412  139.1297  165.6597 C.ar    1  UNL1       -0.0033
     17 C         140.7698  139.5561  166.0931 C.ar    1  UNL1       -0.0117
     18 O         140.4068  140.8734  165.6585 O.3     1  UNL1       -0.4791
     19 C         140.7232  142.1530  164.9426 C.ar    1  UNL1        0.1385
     20 C         142.1106  142.7206  164.9986 C.ar    1  UNL1        0.0369
     21 C         142.4269  144.0001  164.2827 C.ar    1  UNL1        0.0033
     22 C         141.3560  144.7122  163.5107 C.ar    1  UNL1        0.0047
     23 C         139.9686  144.1446  163.4547 C.ar    1  UNL1        0.0561
     24 C         139.6522  142.8650  164.1706 C.ar    1  UNL1        0.0414
     25 C         138.8977  144.8567  162.6827 C.2     1  UNL1        0.2428
     26 N         137.4707  144.4071  162.7903 N.am    1  UNL1       -0.3253
     27 O         139.2537  146.0185  161.8031 O.2     1  UNL1       -0.2704
     28 H         137.2370  143.6446  163.3676 H       1  UNL1        0.1453
     29 H         136.7678  144.8745  162.2836 H       1  UNL1        0.1453
@<TRIPOS>BOND
     1    11    12    1
     2    12    13   ar
     3    13    14   ar
     4    14    15   ar
     5    15    16   ar
     6    16    17   ar
     7    17     9    1
     8     9    10    1
     9     9     1    1
    10     1     2    1
    11     2     3    1
    12     3     4    1
    13     5     4    1
    14     5     6    1
    15     6     7    1
    16     7    18    1
    17    18    19    1
    18    19    20   ar
    19    20    21   ar
    20    21    22   ar
    21    22    23   ar
    22    23    25    1
    23    25    26   am
    24    25    27    2
    25    23    24   ar
    26     7     8    1
    27    17    12   ar
    28     5     1    1
    29    24    19   ar
    30     8     2    1
    31    26    28    1
    32    26    29    1
@<TRIPOS>MOLECULE
*****
 29 32 0 0 0
SMALL
GASTEIGER

@<TRIPOS>ATOM
      1 N         141.0979  140.2955  168.3515 N.3     1  UNL1       -0.2727
      2 C         140.2364  140.0220  169.5486 C.3     1  UNL1        0.0613
      3 C         141.1371  139.8068  170.7286 C.3     1  UNL1        0.0175
      4 C         142.5553  139.9472  170.2608 C.3     1  UNL1        0.0175
      5 C         142.5312  140.2492  168.7917 C.3     1  UNL1        0.0613
      6 C         142.2066  140.5372  167.3457 C.3     1  UNL1        0.0595
      7 C         140.7352  140.5515  167.0545 C.3     1  UNL1        0.1686
      8 C         139.7501  140.2940  168.1559 C.3     1  UNL1        0.0595
      9 C         140.6116  140.5674  166.9588 C.3     1  UNL1        0.0798
     10 C         140.1094  141.9327  166.5930 C.3     1  UNL1        0.0222
     11 C         138.0816  139.1001  166.2908 C.3     1  UNL1        0.0307
     12 C         139.3625  138.7404  165.5980 C.ar    1  UNL1       -0.0245
     13 C         139.3784  137.6471  164.5712 C.ar    1  UNL1       -0.0045
     14 C         140.6593  137.2873  163.8784 C.ar    1  UNL1       -0.0003
     15 C         141.9242  138.0209  164.2124 C.ar    1  UNL1       -0.0003
     16 C         141.9084  139.1143  165.2392 C.ar    1  UNL1       -0.0033
     17 C         140.6275  139.4741  165.9321 C.ar    1  UNL1       -0.0117
     18 O         140.2489  140.8235  165.6617 O.3     1  UNL1       -0.4791
     19 C         140.4731  142.1694  165.0385 C.ar    1  UNL1        0.1385
     20 C         139.3016  142.9987  164.6028 C.ar    1  UNL1        0.0369
     21 C         139.5258  144.3444  163.9796 C.ar    1  UNL1        0.0033
     22 C         140.9215  144.8610  163.7920 C.ar    1  UNL1        0.0047
     23 C         142.0930  144.0317  164.2277 C.ar    1  UNL1        0.0561
     24 C         141.8688  142.6858  164.8509 C.ar    1  UNL1        0.0414
     25 C         143.4887  144.5482  164.0401 C.2     1  UNL1        0.2428
     26 N         143.8390  145.3333  162.8109 N.am    1  UNL1       -0.3253
     27 O         144.5341  144.2798  165.0819 O.2     1  UNL1       -0.2704
     28 H         143.1529  145.5095  162.1272 H       1  UNL1        0.1453
     29 H         144.7551  145.6723  162.6878 H       1  UNL1        0.1453
@<TRIPOS>BOND
     1    11    12    1
     2    12    13   ar
     3    13    14   ar
     4    14    15   ar
     5    15    16   ar
     6    16    17   ar
     7    17     9    1
     8     9    10    1
     9     9     1    1
    10     1     2    1
    11     2     3    1
    12     3     4    1
    13     5     4    1
    14     5     6    1
    15     6     7    1
    16     7    18    1
    17    18    19    1
    18    19    20   ar
    19    20    21   ar
    20    21    22   ar
    21    22    23   ar
    22    23    25    1
    23    25    26   am
    24    25    27    2
    25    23    24   ar
    26     7     8    1
    27    17    12   ar
    28     5     1    1
    29    24    19   ar
    30     8     2    1
    31    26    28    1
    32    26    29    1
@<TRIPOS>MOLECULE
*****
 29 32 0 0 0
SMALL
GASTEIGER

@<TRIPOS>ATOM
      1 N         139.3038  142.5529  164.1932 N.3     1  UNL1       -0.2727
      2 C         137.8430  142.7564  163.9199 C.3     1  UNL1        0.0613
      3 C         137.7083  143.8719  162.9261 C.3     1  UNL1        0.0175
      4 C         139.0859  144.3578  162.5853 C.3     1  UNL1        0.0175
      5 C         140.0720  143.5426  163.3684 C.3     1  UNL1        0.0613
      6 C         140.8181  142.5830  164.2637 C.3     1  UNL1        0.0595
      7 C         139.9197  141.6547  165.0260 C.3     1  UNL1        0.1686
      8 C         138.4321  141.7414  164.8541 C.3     1  UNL1        0.0595
      9 C         139.8929  141.5379  165.1274 C.3     1  UNL1        0.0798
     10 C         140.0577  141.8641  166.5822 C.3     1  UNL1        0.0222
     11 C         138.2594  139.1006  165.7534 C.3     1  UNL1        0.0307
     12 C         139.5004  138.9781  164.9198 C.ar    1  UNL1       -0.0245
     13 C         139.9247  137.6368  164.3992 C.ar    1  UNL1       -0.0045
     14 C         141.1657  137.5142  163.5655 C.ar    1  UNL1       -0.0003
     15 C         141.9824  138.7327  163.2526 C.ar    1  UNL1       -0.0003
     16 C         141.5582  140.0740  163.7732 C.ar    1  UNL1       -0.0033
     17 C         140.3171  140.1967  164.6068 C.ar    1  UNL1       -0.0117
     18 O         140.5088  140.6397  165.9602 O.3     1  UNL1       -0.4791
     19 C         141.2050  141.0870  167.2113 C.ar    1  UNL1        0.1385
     20 C         142.5175  141.8077  167.1225 C.ar    1  UNL1        0.0369
     21 C         143.2137  142.2549  168.3736 C.ar    1  UNL1        0.0033
     22 C         142.5974  141.9815  169.7135 C.ar    1  UNL1        0.0047
     23 C         141.2849  141.2608  169.8023 C.ar    1  UNL1        0.0561
     24 C         140.5887  140.8135  168.5512 C.ar    1  UNL1        0.0414
     25 C         140.6686  140.9873  171.1422 C.2     1  UNL1        0.2428
     26 N         140.0793  139.6395  171.4357 N.am    1  UNL1       -0.3253
     27 O         140.6416  142.0617  172.1887 O.2     1  UNL1       -0.2704
     28 H         140.0970  138.9343  170.7489 H       1  UNL1        0.1453
     29 H         139.6748  139.4600  172.3152 H       1  UNL1        0.1453
@<TRIPOS>BOND
     1    11    12    1
     2    12    13   ar
     3    13    14   ar
     4    14    15   ar
     5    15    16   ar
     6    16    17   ar
     7    17     9    1
     8     9    10    1
     9     9     1    1
    10     1     2    1
    11     2     3    1
    12     3     4    1
    13     5     4    1
    14     5     6    1
    15     6     7    1
    16     7    18    1
    17    18    19    1
    18    19    20   ar
    19    20    21   ar
    20    21    22   ar
    21    22    23   ar
    22    23    25    1
    23    25    26   am
    24    25    27    2
    25    23    24   ar
    26     7     8    1
    27    17    12   ar
    28     5     1    1
    29    24    19   ar
    30     8     2    1
    31    26    28    1
    32    26    29    1
@<TRIPOS>MOLECULE
*****
 29 32 0 0 0
SMALL
GASTEIGER

@<TRIPOS>ATOM
      1 N         139.7157  142.9165  163.8874 N.3     1  UNL1       -0.2727
      2 C         140.3082  143.3550  162.5810 C.3     1  UNL1        0.0613
      3 C         139.3224  144.2619  161.9060 C.3     1  UNL1        0.0175
      4 C         138.1206  144.3839  162.7953 C.3     1  UNL1        0.0175
      5 C         138.3637  143.5524  164.0199 C.3     1  UNL1        0.0613
      6 C         138.8728  142.6524  165.1198 C.3     1  UNL1        0.0595
      7 C         140.2367  142.0898  164.8490 C.3     1  UNL1        0.1686
      8 C         140.9544  142.4411  163.5796 C.3     1  UNL1        0.0595
      9 C         140.3619  142.0026  164.8860 C.3     1  UNL1        0.0798
     10 C         141.4722  142.5094  165.7580 C.3     1  UNL1        0.0222
     11 C         141.8500  139.8076  163.4831 C.3     1  UNL1        0.0307
     12 C         140.6418  139.4844  164.3112 C.ar    1  UNL1       -0.0245
     13 C         140.1776  138.0637  164.4378 C.ar    1  UNL1       -0.0045
     14 C         138.9693  137.7403  165.2659 C.ar    1  UNL1       -0.0003
     15 C         138.2253  138.8377  165.9673 C.ar    1  UNL1       -0.0003
     16 C         138.6894  140.2585  165.8408 C.ar    1  UNL1       -0.0033
     17 C         139.8977  140.5819  165.0127 C.ar    1  UNL1       -0.0117
     18 O         140.8828  141.1758  165.8477 O.3     1  UNL1       -0.4791
     19 C         141.4174  141.7297  167.1352 C.ar    1  UNL1        0.1385
     20 C         142.8717  141.5784  167.4702 C.ar    1  UNL1        0.0369
     21 C         143.4063  142.1322  168.7575 C.ar    1  UNL1        0.0033
     22 C         142.4866  142.8373  169.7100 C.ar    1  UNL1        0.0047
     23 C         141.0324  142.9885  169.3750 C.ar    1  UNL1        0.0561
     24 C         140.4978  142.4347  168.0875 C.ar    1  UNL1        0.0414
     25 C         140.1128  143.6935  170.3274 C.2     1  UNL1        0.2428
     26 N         139.3106  142.9037  171.3187 N.am    1  UNL1       -0.3253
     27 O         139.9953  145.1885  170.2886 O.2     1  UNL1       -0.2704
     28 H         139.3876  141.9226  171.3442 H       1  UNL1        0.1453
     29 H         138.7070  143.3665  171.9439 H       1  UNL1        0.1453
@<TRIPOS>BOND
     1    11    12    1
     2    12    13   ar
     3    13    14   ar
     4    14    15   ar
     5    15    16   ar
     6    16    17   ar
     7    17     9    1
     8     9    10    1
     9     9     1    1
    10     1     2    1
    11     2     3    1
    12     3     4    1
    13     5     4    1
    14     5     6    1
    15     6     7    1
    16     7    18    1
    17    18    19    1
    18    19    20   ar
    19    20    21   ar
    20    21    22   ar
    21    22    23   ar
    22    23    25    1
    23    25    26   am
    24    25    27    2
    25    23    24   ar
    26     7     8    1
    27    17    12   ar
    28     5     1    1
    29    24    19   ar
    30     8     2    1
    31    26    28    1
    32    26    29    1
@<TRIPOS>MOLECULE
*****
 29 32 0 0 0
SMALL
GASTEIGER

@<TRIPOS>ATOM
      1 N         142.5214  140.7466  168.1240 N.3     1  UNL1       -0.2727
      2 C         142.4324  139.4520  168.8765 C.3     1  UNL1        0.0613
      3 C         142.8333  139.7136  170.2980 C.3     1  UNL1        0.0175
      4 C         143.1701  141.1699  170.4241 C.3     1  UNL1        0.0175
      5 C         142.9774  141.8083  169.0805 C.3     1  UNL1        0.0613
      6 C         142.7037  142.1724  167.6412 C.3     1  UNL1        0.0595
      7 C         142.2559  141.0103  166.8051 C.3     1  UNL1        0.1686
      8 C         142.1203  139.6501  167.4227 C.3     1  UNL1        0.0595
      9 C         142.2093  140.9447  166.6703 C.3     1  UNL1        0.0798
     10 C         140.7838  140.9530  166.2035 C.3     1  UNL1        0.0222
     11 C         143.3159  138.5845  165.1852 C.3     1  UNL1        0.0307
     12 C         143.8760  139.9543  164.9407 C.ar    1  UNL1       -0.0245
     13 C         144.9895  140.1440  163.9537 C.ar    1  UNL1       -0.0045
     14 C         145.5497  141.5139  163.7092 C.ar    1  UNL1       -0.0003
     15 C         144.9965  142.6939  164.4517 C.ar    1  UNL1       -0.0003
     16 C         143.8830  142.5043  165.4387 C.ar    1  UNL1       -0.0033
     17 C         143.3228  141.1344  165.6833 C.ar    1  UNL1       -0.0117
     18 O         141.9438  141.2084  165.3513 O.3     1  UNL1       -0.4791
     19 C         140.7678  142.0457  164.9440 C.ar    1  UNL1        0.1385
     20 C         140.4551  143.3112  165.6862 C.ar    1  UNL1        0.0369
     21 C         139.2791  144.1484  165.2789 C.ar    1  UNL1        0.0033
     22 C         138.4157  143.7202  164.1295 C.ar    1  UNL1        0.0047
     23 C         138.7284  142.4548  163.3874 C.ar    1  UNL1        0.0561
     24 C         139.9045  141.6175  163.7946 C.ar    1  UNL1        0.0414
     25 C         137.8650  142.0266  162.2379 C.2     1  UNL1        0.2428
     26 N         137.2121  140.6762  162.2526 N.am    1  UNL1       -0.3253
     27 O         137.6545  142.9488  161.0737 O.2     1  UNL1       -0.2704
     28 H         137.3502  140.0709  163.0167 H       1  UNL1        0.1453
     29 H         136.6454  140.3952  161.4982 H       1  UNL1        0.1453
@<TRIPOS>BOND
     1    11    12    1
     2    12    13   ar
     3    13    14   ar
     4    14    15   ar
     5    15    16   ar
     6    16    17   ar
     7    17     9    1
     8     9    10    1
     9     9     1    1
    10     1     2    1
    11     2     3    1
    12     3     4    1
    13     5     4    1
    14     5     6    1
    15     6     7    1
    16     7    18    1
    17    18    19    1
    18    19    20   ar
    19    20    21   ar
    20    21    22   ar
    21    22    23   ar
    22    23    25    1
    23    25    26   am
    24    25    27    2
    25    23    24   ar
    26     7     8    1
    27    17    12   ar
    28     5     1    1
    29    24    19   ar
    30     8     2    1
    31    26    28    1
    32    26    29    1
@<TRIPOS>MOLECULE
*****
 29 32 0 0 0
SMALL
GASTEIGER

@<TRIPOS>ATOM
      1 N         141.0527  140.3344  168.4005 N.3     1  UNL1       -0.2727
      2 C         141.6116  139.5940  169.5793 C.3     1  UNL1        0.0613
      3 C         140.6532  139.7514  170.7224 C.3     1  UNL1        0.0175
      4 C         139.5021  140.5892  170.2501 C.3     1  UNL1        0.0175
      5 C         139.7490  140.9495  168.8151 C.3     1  UNL1        0.0613
      6 C         140.2514  141.1516  167.4059 C.3     1  UNL1        0.0595
      7 C         141.5652  140.4795  167.1372 C.3     1  UNL1        0.1686
      8 C         142.2453  139.7007  168.2239 C.3     1  UNL1        0.0595
      9 C         141.6864  140.4411  167.0451 C.3     1  UNL1        0.0798
     10 C         142.6999  141.5130  166.7733 C.3     1  UNL1        0.0222
     11 C         143.6083  138.2957  166.2060 C.3     1  UNL1        0.0307
     12 C         142.2675  138.4032  165.5421 C.ar    1  UNL1       -0.0245
     13 C         141.8877  137.4379  164.4586 C.ar    1  UNL1       -0.0045
     14 C         140.5469  137.5453  163.7945 C.ar    1  UNL1       -0.0003
     15 C         139.5861  138.6179  164.2141 C.ar    1  UNL1       -0.0003
     16 C         139.9658  139.5832  165.2976 C.ar    1  UNL1       -0.0033
     17 C         141.3066  139.4758  165.9616 C.ar    1  UNL1       -0.0117
     18 O         142.1988  140.5861  165.7818 O.3     1  UNL1       -0.4791
     19 C         142.4773  141.9353  165.1881 C.ar    1  UNL1        0.1385
     20 C         143.8923  142.4054  165.0251 C.ar    1  UNL1        0.0369
     21 C         144.1708  143.7544  164.4315 C.ar    1  UNL1        0.0033
     22 C         143.0342  144.6334  164.0009 C.ar    1  UNL1        0.0047
     23 C         141.6191  144.1633  164.1639 C.ar    1  UNL1        0.0561
     24 C         141.3407  142.8142  164.7575 C.ar    1  UNL1        0.0414
     25 C         140.4825  145.0423  163.7333 C.2     1  UNL1        0.2428
     26 N         140.7197  146.1439  162.7431 N.am    1  UNL1       -0.3253
     27 O         139.1086  144.8198  164.2929 O.2     1  UNL1       -0.2704
     28 H         141.6214  146.2899  162.3759 H       1  UNL1        0.1453
     29 H         139.9737  146.7208  162.4605 H       1  UNL1        0.1453
@<TRIPOS>BOND
     1    11    12    1
     2    12    13   ar
     3    13    14   ar
     4    14    15   ar
     5    15    16   ar
     6    16    17   ar
     7    17     9    1
     8     9    10    1
     9     9     1    1
    10     1     2    1
    11     2     3    1
    12     3     4    1
    13     5     4    1
    14     5     6    1
    15     6     7    1
    16     7    18    1
    17    18    19    1
    18    19    20   ar
    19    20    21   ar
    20    21    22   ar
    21    22    23   ar
    22    23    25    1
    23    25    26   am
    24    25    27    2
    25    23    24   ar
    26     7     8    1
    27    17    12   ar
    28     5     1    1
    29    24    19   ar
    30     8     2    1
    31    26    28    1
    32    26    29    1
@<TRIPOS>MOLECULE
*****
 29 32 0 0 0
SMALL
GASTEIGER

@<TRIPOS>ATOM
      1 N         142.9419  141.3070  164.3166 N.3     1  UNL1       -0.2727
      2 C         143.4069  140.4214  163.1988 C.3     1  UNL1        0.0613
      3 C         144.8498  140.7318  162.9310 C.3     1  UNL1        0.0175
      4 C         145.2765  141.8094  163.8832 C.3     1  UNL1        0.0175
      5 C         144.0974  142.1649  164.7396 C.3     1  UNL1        0.0613
      6 C         142.7677  142.3113  165.4392 C.3     1  UNL1        0.0595
      7 C         141.7088  141.3900  164.9100 C.3     1  UNL1        0.1686
      8 C         142.0285  140.4450  163.7898 C.3     1  UNL1        0.0595
      9 C         141.5635  141.3306  164.9076 C.3     1  UNL1        0.0798
     10 C         141.2039  140.3797  166.0106 C.3     1  UNL1        0.0222
     11 C         139.1757  140.3425  163.3838 C.3     1  UNL1        0.0307
     12 C         139.3507  141.8111  163.6337 C.ar    1  UNL1       -0.0245
     13 C         138.3318  142.7856  163.1218 C.ar    1  UNL1       -0.0045
     14 C         138.5068  144.2543  163.3717 C.ar    1  UNL1       -0.0003
     15 C         139.7006  144.7484  164.1336 C.ar    1  UNL1       -0.0003
     16 C         140.7196  143.7739  164.6456 C.ar    1  UNL1       -0.0033
     17 C         140.5446  142.3052  164.3957 C.ar    1  UNL1       -0.0117
     18 O         140.3303  141.4136  165.5011 O.3     1  UNL1       -0.4791
     19 C         140.1531  141.4276  166.9905 C.ar    1  UNL1        0.1385
     20 C         139.4972  140.2673  167.6787 C.ar    1  UNL1        0.0369
     21 C         139.3200  140.2812  169.1680 C.ar    1  UNL1        0.0033
     22 C         139.7986  141.4555  169.9693 C.ar    1  UNL1        0.0047
     23 C         140.4545  142.6158  169.2812 C.ar    1  UNL1        0.0561
     24 C         140.6317  142.6018  167.7917 C.ar    1  UNL1        0.0414
     25 C         140.9331  143.7900  170.0825 C.2     1  UNL1        0.2428
     26 N         142.3441  143.8266  170.5901 N.am    1  UNL1       -0.3253
     27 O         140.0006  144.9277  170.3762 O.2     1  UNL1       -0.2704
     28 H         142.9561  143.0799  170.3974 H       1  UNL1        0.1453
     29 H         142.6582  144.5973  171.1160 H       1  UNL1        0.1453
@<TRIPOS>BOND
     1    11    12    1
     2    12    13   ar
     3    13    14   ar
     4    14    15   ar
     5    15    16   ar
     6    16    17   ar
     7    17     9    1
     8     9    10    1
     9     9     1    1
    10     1     2    1
    11     2     3    1
    12     3     4    1
    13     5     4    1
    14     5     6    1
    15     6     7    1
    16     7    18    1
    17    18    19    1
    18    19    20   ar
    19    20    21   ar
    20    21    22   ar
    21    22    23   ar
    22    23    25    1
    23    25    26   am
    24    25    27    2
    25    23    24   ar
    26     7     8    1
    27    17    12   ar
    28     5     1    1
    29    24    19   ar
    30     8     2    1
    31    26    28    1
    32    26    29    1
@<TRIPOS>MOLECULE
*****
 29 32 0 0 0
SMALL
GASTEIGER

@<TRIPOS>ATOM
      1 N         142.1718  140.9019  168.3238 N.3     1  UNL1       -0.2727
      2 C         142.5445  139.8995  169.3756 C.3     1  UNL1        0.0613
      3 C         142.6799  140.6258  170.6810 C.3     1  UNL1        0.0175
      4 C         142.3908  142.0772  170.4360 C.3     1  UNL1        0.0175
      5 C         142.0769  142.2478  168.9792 C.3     1  UNL1        0.0613
      6 C         141.8077  142.1211  167.4991 C.3     1  UNL1        0.0595
      7 C         141.9399  140.7181  166.9852 C.3     1  UNL1        0.1686
      8 C         142.3083  139.6073  167.9234 C.3     1  UNL1        0.0595
      9 C         141.9356  140.6097  166.8716 C.3     1  UNL1        0.0798
     10 C         140.5773  140.1771  166.4049 C.3     1  UNL1        0.0222
     11 C         143.2488  138.1634  165.7352 C.3     1  UNL1        0.0307
     12 C         143.7143  139.5269  165.3180 C.ar    1  UNL1       -0.0245
     13 C         144.8364  139.6673  164.3326 C.ar    1  UNL1       -0.0045
     14 C         145.3020  141.0309  163.9153 C.ar    1  UNL1       -0.0003
     15 C         144.6455  142.2539  164.4834 C.ar    1  UNL1       -0.0003
     16 C         143.5233  142.1136  165.4689 C.ar    1  UNL1       -0.0033
     17 C         143.0577  140.7501  165.8862 C.ar    1  UNL1       -0.0117
     18 O         141.7036  140.4259  165.5329 O.3     1  UNL1       -0.4791
     19 C         140.3895  140.7781  164.9012 C.ar    1  UNL1        0.1385
     20 C         139.4928  139.6939  164.3812 C.ar    1  UNL1        0.0369
     21 C         138.1788  140.0461  163.7494 C.ar    1  UNL1        0.0033
     22 C         137.7614  141.4825  163.6377 C.ar    1  UNL1        0.0047
     23 C         138.6581  142.5667  164.1577 C.ar    1  UNL1        0.0561
     24 C         139.9722  142.2145  164.7895 C.ar    1  UNL1        0.0414
     25 C         138.2406  144.0031  164.0460 C.2     1  UNL1        0.2428
     26 N         137.5555  144.4906  162.8038 N.am    1  UNL1       -0.3253
     27 O         138.5083  144.9521  165.1764 O.2     1  UNL1       -0.2704
     28 H         137.3798  143.8678  162.0618 H       1  UNL1        0.1453
     29 H         137.2816  145.4334  162.7305 H       1  UNL1        0.1453
@<TRIPOS>BOND
     1    11    12    1
     2    12    13   ar
     3    13    14   ar
     4    14    15   ar
     5    15    16   ar
     6    16    17   ar
     7    17     9    1
     8     9    10    1
     9     9     1    1
    10     1     2    1
    11     2     3    1
    12     3     4    1
    13     5     4    1
    14     5     6    1
    15     6     7    1
    16     7    18    1
    17    18    19    1
    18    19    20   ar
    19    20    21   ar
    20    21    22   ar
    21    22    23   ar
    22    23    25    1
    23    25    26   am
    24    25    27    2
    25    23    24   ar
    26     7     8    1
    27    17    12   ar
    28     5     1    1
    29    24    19   ar
    30     8     2    1
    31    26    28    1
    32    26    29    1
