@<TRIPOS>MOLECULE
*****
 49 54 0 0 0
SMALL
GASTEIGER

@<TRIPOS>ATOM
      1 C         142.2183  139.6710  158.1382 C.ar    1  UNL1        0.1208
      2 C         142.3394  138.2208  157.7743 C.ar    1  UNL1        0.0933
      3 C         143.2877  137.7957  156.6927 C.ar    1  UNL1        0.2638
      4 O         143.4087  136.3456  156.3288 O.2     1  UNL1       -0.2670
      5 N         144.1149  138.8206  155.9749 N.ar    1  UNL1       -0.2743
      6 C         143.9939  140.2708  156.3388 C.ar    1  UNL1        0.3316
      7 O         144.8211  141.2957  155.6211 O.2     1  UNL1       -0.2464
      8 N         143.0455  140.6960  157.4205 N.ar    1  UNL1       -0.2653
      9 H         144.7373  138.5416  155.2650 H       1  UNL1        0.1734
     10 O         137.2057  142.1745  162.1202 O.2     1  UNL1       -0.2699
     11 C         138.4251  141.3717  162.4647 C.2     1  UNL1        0.2491
     12 N         139.3734  140.9466  161.3831 N.am    1  UNL1       -0.2726
     13 C         140.5927  140.1438  161.7276 C.3     1  UNL1        0.1152
     14 C         141.5411  139.7186  160.6460 C.3     1  UNL1        0.1136
     15 N         141.2700  140.0962  159.2198 N.pl3   1  UNL1       -0.2908
     16 C         140.0506  140.8990  158.8753 C.3     1  UNL1        0.1136
     17 C         139.1023  141.3242  159.9569 C.3     1  UNL1        0.1152
     18 C         138.6961  140.9942  163.8909 C.ar    1  UNL1        0.0536
     19 C         139.4262  141.9449  164.7927 C.ar    1  UNL1        0.0054
     20 C         139.6972  141.5673  166.2188 C.ar    1  UNL1        0.0115
     21 C         139.2382  140.2390  166.7432 C.ar    1  UNL1        0.0616
     22 CL        139.5092  139.8614  168.1694 Cl      1  UNL1       -0.0823
     23 C         138.5082  139.2883  165.8414 C.ar    1  UNL1        0.0821
     24 C         138.2371  139.6659  164.4153 C.ar    1  UNL1        0.0092
     25 C         138.0492  137.9600  166.3658 C.3     1  UNL1        0.4194
     26 F         137.5903  136.6317  166.8902 F       1  UNL1       -0.1658
     27 F         137.0291  138.6505  167.2217 F       1  UNL1       -0.1658
     28 F         139.0693  137.2696  165.5099 F       1  UNL1       -0.1658
     29 C         142.9245  142.1461  157.7844 C.3     1  UNL1        0.1384
     30 C         143.2476  142.5994  159.1772 C.ar    1  UNL1        0.0008
     31 C         144.4906  142.1062  159.8570 C.ar    1  UNL1        0.0008
     32 C         144.8137  142.5595  161.2499 C.ar    1  UNL1        0.0396
     33 C         143.8940  143.5059  161.9630 C.ar    1  UNL1        0.1736
     34 C         142.6511  143.9990  161.2832 C.ar    1  UNL1        0.0396
     35 C         142.3280  143.5457  159.8903 C.ar    1  UNL1        0.0008
     36 O         144.2171  143.9592  163.3559 O.3     1  UNL1       -0.3410
     37 S         143.8651  143.0913  164.5277 S.O2    1  UNL1        0.1522
     38 O         145.2804  142.5980  164.5874 O.2     1  UNL1       -0.1313
     39 O         142.4498  143.5846  164.4679 O.2     1  UNL1       -0.1313
     40 C         143.5131  142.2234  165.6994 C.ar    1  UNL1        0.1448
     41 C         143.4345  142.8163  167.0750 C.ar    1  UNL1        0.0219
     42 C         143.0825  141.9485  168.2467 C.ar    1  UNL1        0.0015
     43 C         142.8092  140.4877  168.0428 C.ar    1  UNL1        0.0016
     44 C         142.8879  139.8948  166.6672 C.ar    1  UNL1        0.0205
     45 C         142.6146  138.4341  166.4632 C.ar    1  UNL1        0.0989
     46 N         142.6933  137.8412  165.0876 N.ar    1  UNL1       -0.2423
     47 C         143.0453  138.7091  163.9159 C.ar    1  UNL1        0.0989
     48 C         143.3186  140.1699  164.1198 C.ar    1  UNL1        0.0221
     49 C         143.2399  140.7627  165.4954 C.ar    1  UNL1        0.0236
@<TRIPOS>BOND
     1    10    11    2
     2    11    18    1
     3    18    19   ar
     4    19    20   ar
     5    20    21   ar
     6    21    22    1
     7    21    23   ar
     8    23    25    1
     9    25    26    1
    10    25    27    1
    11    25    28    1
    12    23    24   ar
    13    11    12   am
    14    12    13    1
    15    13    14    1
    16    14    15    1
    17    15     1    1
    18     1     2   ar
    19     2     3   ar
    20     3     4    2
    21     3     5   ar
    22     5     6   ar
    23     6     7    2
    24     6     8   ar
    25     8    29    1
    26    29    30    1
    27    30    31   ar
    28    31    32   ar
    29    32    33   ar
    30    33    36    1
    31    36    37    1
    32    37    38    2
    33    37    39    2
    34    37    40    1
    35    40    41   ar
    36    41    42   ar
    37    42    43   ar
    38    43    44   ar
    39    44    45   ar
    40    45    46   ar
    41    46    47   ar
    42    47    48   ar
    43    48    49   ar
    44    33    34   ar
    45    34    35   ar
    46    15    16    1
    47    16    17    1
    48    24    18   ar
    49    17    12    1
    50     8     1   ar
    51    35    30   ar
    52    49    40   ar
    53    49    44   ar
    54     5     9    1
@<TRIPOS>MOLECULE
*****
 49 54 0 0 0
SMALL
GASTEIGER

@<TRIPOS>ATOM
      1 C         142.0573  137.8100  157.2018 C.ar    1  UNL1        0.1208
      2 C         142.8466  136.5972  156.8063 C.ar    1  UNL1        0.0933
      3 C         142.1806  135.4796  156.0598 C.ar    1  UNL1        0.2638
      4 O         142.9699  134.2669  155.6644 O.2     1  UNL1       -0.2670
      5 N         140.7254  135.5746  155.7087 N.ar    1  UNL1       -0.2743
      6 C         139.9361  136.7873  156.1042 C.ar    1  UNL1        0.3316
      7 O         138.4809  136.8823  155.7531 O.2     1  UNL1       -0.2464
      8 N         140.6021  137.9050  156.8507 N.ar    1  UNL1       -0.2653
      9 H         140.2883  134.8411  155.2188 H       1  UNL1        0.1734
     10 O         145.5932  143.2570  159.4552 O.2     1  UNL1       -0.2699
     11 C         144.7213  142.2806  160.1878 C.2     1  UNL1        0.2491
     12 N         144.0553  141.1630  159.4413 N.am    1  UNL1       -0.2726
     13 C         143.1835  140.1867  160.1739 C.3     1  UNL1        0.1152
     14 C         142.5175  139.0690  159.4274 C.3     1  UNL1        0.1136
     15 N         142.7233  138.9276  157.9483 N.pl3   1  UNL1       -0.2908
     16 C         143.5952  139.9040  157.2157 C.3     1  UNL1        0.1136
     17 C         144.2612  141.0216  157.9622 C.3     1  UNL1        0.1152
     18 C         144.5155  142.4219  161.6669 C.ar    1  UNL1        0.0536
     19 C         145.4930  141.8044  162.6225 C.ar    1  UNL1        0.0054
     20 C         145.2871  141.9458  164.1016 C.ar    1  UNL1        0.0115
     21 C         144.1038  142.7046  164.6250 C.ar    1  UNL1        0.0616
     22 CL        143.8979  142.8459  166.1041 Cl      1  UNL1       -0.0823
     23 C         143.1263  143.3221  163.6694 C.ar    1  UNL1        0.0821
     24 C         143.3322  143.1807  162.1903 C.ar    1  UNL1        0.0092
     25 C         141.9431  144.0809  164.1928 C.3     1  UNL1        0.4194
     26 F         140.7597  144.8397  164.7162 F       1  UNL1       -0.1658
     27 F         141.2326  142.7875  164.4617 F       1  UNL1       -0.1658
     28 F         142.6535  145.3743  163.9238 F       1  UNL1       -0.1658
     29 C         139.8128  139.1177  157.2462 C.3     1  UNL1        0.1384
     30 C         139.2925  139.2500  158.6468 C.ar    1  UNL1        0.0008
     31 C         139.4457  138.1139  159.6143 C.ar    1  UNL1        0.0008
     32 C         138.9254  138.2463  161.0149 C.ar    1  UNL1        0.0396
     33 C         138.2519  139.5147  161.4481 C.ar    1  UNL1        0.1736
     34 C         138.0987  140.6507  160.4806 C.ar    1  UNL1        0.0396
     35 C         138.6190  140.5184  159.0800 C.ar    1  UNL1        0.0008
     36 O         137.7316  139.6470  162.8487 O.3     1  UNL1       -0.3410
     37 S         138.6892  139.7141  164.0013 S.O2    1  UNL1        0.1522
     38 O         138.4748  138.2531  164.2645 O.2     1  UNL1       -0.1313
     39 O         138.9036  141.1752  163.7382 O.2     1  UNL1       -0.1313
     40 C         139.6468  139.7812  165.1539 C.ar    1  UNL1        0.1448
     41 C         139.1583  140.1895  166.5121 C.ar    1  UNL1        0.0219
     42 C         140.1159  140.2566  167.6646 C.ar    1  UNL1        0.0015
     43 C         141.5621  139.9154  167.4591 C.ar    1  UNL1        0.0016
     44 C         142.0506  139.5071  166.1009 C.ar    1  UNL1        0.0205
     45 C         143.4967  139.1659  165.8952 C.ar    1  UNL1        0.0989
     46 N         143.9852  138.7576  164.5371 N.ar    1  UNL1       -0.2423
     47 C         143.0276  138.6905  163.3845 C.ar    1  UNL1        0.0989
     48 C         141.5814  139.0317  163.5901 C.ar    1  UNL1        0.0221
     49 C         141.0929  139.4400  164.9483 C.ar    1  UNL1        0.0236
@<TRIPOS>BOND
     1    10    11    2
     2    11    18    1
     3    18    19   ar
     4    19    20   ar
     5    20    21   ar
     6    21    22    1
     7    21    23   ar
     8    23    25    1
     9    25    26    1
    10    25    27    1
    11    25    28    1
    12    23    24   ar
    13    11    12   am
    14    12    13    1
    15    13    14    1
    16    14    15    1
    17    15     1    1
    18     1     2   ar
    19     2     3   ar
    20     3     4    2
    21     3     5   ar
    22     5     6   ar
    23     6     7    2
    24     6     8   ar
    25     8    29    1
    26    29    30    1
    27    30    31   ar
    28    31    32   ar
    29    32    33   ar
    30    33    36    1
    31    36    37    1
    32    37    38    2
    33    37    39    2
    34    37    40    1
    35    40    41   ar
    36    41    42   ar
    37    42    43   ar
    38    43    44   ar
    39    44    45   ar
    40    45    46   ar
    41    46    47   ar
    42    47    48   ar
    43    48    49   ar
    44    33    34   ar
    45    34    35   ar
    46    15    16    1
    47    16    17    1
    48    24    18   ar
    49    17    12    1
    50     8     1   ar
    51    35    30   ar
    52    49    40   ar
    53    49    44   ar
    54     5     9    1
@<TRIPOS>MOLECULE
*****
 49 54 0 0 0
SMALL
GASTEIGER

@<TRIPOS>ATOM
      1 C         141.5829  142.0196  167.3837 C.ar    1  UNL1        0.1208
      2 C         142.8033  142.7079  167.9196 C.ar    1  UNL1        0.0933
      3 C         143.4765  142.1871  169.1546 C.ar    1  UNL1        0.2638
      4 O         144.6968  142.8754  169.6904 O.2     1  UNL1       -0.2670
      5 N         142.9295  140.9781  169.8539 N.ar    1  UNL1       -0.2743
      6 C         141.7093  140.2898  169.3181 C.ar    1  UNL1        0.3316
      7 O         141.1623  139.0807  170.0173 O.2     1  UNL1       -0.2464
      8 N         141.0359  140.8106  168.0829 N.ar    1  UNL1       -0.2653
      9 H         143.3715  140.6363  170.6645 H       1  UNL1        0.1734
     10 O         137.6734  144.9726  162.5623 O.2     1  UNL1       -0.2699
     11 C         138.8897  144.1028  162.4434 C.2     1  UNL1        0.2491
     12 N         139.5630  143.5820  163.6784 N.am    1  UNL1       -0.2726
     13 C         140.7793  142.7124  163.5595 C.3     1  UNL1        0.1152
     14 C         141.4527  142.1915  164.7946 C.3     1  UNL1        0.1136
     15 N         140.9096  142.5404  166.1486 N.pl3   1  UNL1       -0.2908
     16 C         139.6933  143.4102  166.2675 C.3     1  UNL1        0.1136
     17 C         139.0200  143.9309  165.0325 C.3     1  UNL1        0.1152
     18 C         139.4328  143.7539  161.0893 C.ar    1  UNL1        0.0536
     19 C         139.1194  142.4213  160.4762 C.ar    1  UNL1        0.0054
     20 C         139.6624  142.0724  159.1222 C.ar    1  UNL1        0.0115
     21 C         140.5188  143.0561  158.3813 C.ar    1  UNL1        0.0616
     22 CL        141.0619  142.7072  157.0273 Cl      1  UNL1       -0.0823
     23 C         140.8322  144.3887  158.9944 C.ar    1  UNL1        0.0821
     24 C         140.2892  144.7376  160.3485 C.ar    1  UNL1        0.0092
     25 C         141.6886  145.3724  158.2536 C.3     1  UNL1        0.4194
     26 F         142.5450  146.3561  157.5127 F       1  UNL1       -0.1658
     27 F         142.8989  144.5335  158.5387 F       1  UNL1       -0.1658
     28 F         140.4783  146.2113  157.9684 F       1  UNL1       -0.1658
     29 C         139.8156  140.1223  167.5471 C.3     1  UNL1        0.1384
     30 C         139.8561  139.4653  166.1992 C.ar    1  UNL1        0.0008
     31 C         138.6768  139.5700  165.2782 C.ar    1  UNL1        0.0008
     32 C         138.7172  138.9130  163.9303 C.ar    1  UNL1        0.0396
     33 C         139.9370  138.1514  163.5035 C.ar    1  UNL1        0.1736
     34 C         141.1163  138.0468  164.4245 C.ar    1  UNL1        0.0396
     35 C         141.0758  138.7038  165.7724 C.ar    1  UNL1        0.0008
     36 O         139.9775  137.4945  162.1556 O.3     1  UNL1       -0.3410
     37 S         140.7274  138.1407  161.0285 S.O2    1  UNL1        0.1522
     38 O         139.5212  138.9704  160.7018 O.2     1  UNL1       -0.1313
     39 O         141.9335  137.3110  161.3552 O.2     1  UNL1       -0.1313
     40 C         141.4771  138.7869  159.9015 C.ar    1  UNL1        0.1448
     41 C         141.2427  138.3376  158.4897 C.ar    1  UNL1        0.0219
     42 C         141.9925  138.9837  157.3627 C.ar    1  UNL1        0.0015
     43 C         142.9768  140.0793  157.6474 C.ar    1  UNL1        0.0016
     44 C         143.2112  140.5286  159.0592 C.ar    1  UNL1        0.0205
     45 C         144.1954  141.6241  159.3439 C.ar    1  UNL1        0.0989
     46 N         144.4299  142.0734  160.7557 N.ar    1  UNL1       -0.2423
     47 C         143.6801  141.4272  161.8828 C.ar    1  UNL1        0.0989
     48 C         142.6958  140.3317  161.5980 C.ar    1  UNL1        0.0221
     49 C         142.4614  139.8824  160.1862 C.ar    1  UNL1        0.0236
@<TRIPOS>BOND
     1    10    11    2
     2    11    18    1
     3    18    19   ar
     4    19    20   ar
     5    20    21   ar
     6    21    22    1
     7    21    23   ar
     8    23    25    1
     9    25    26    1
    10    25    27    1
    11    25    28    1
    12    23    24   ar
    13    11    12   am
    14    12    13    1
    15    13    14    1
    16    14    15    1
    17    15     1    1
    18     1     2   ar
    19     2     3   ar
    20     3     4    2
    21     3     5   ar
    22     5     6   ar
    23     6     7    2
    24     6     8   ar
    25     8    29    1
    26    29    30    1
    27    30    31   ar
    28    31    32   ar
    29    32    33   ar
    30    33    36    1
    31    36    37    1
    32    37    38    2
    33    37    39    2
    34    37    40    1
    35    40    41   ar
    36    41    42   ar
    37    42    43   ar
    38    43    44   ar
    39    44    45   ar
    40    45    46   ar
    41    46    47   ar
    42    47    48   ar
    43    48    49   ar
    44    33    34   ar
    45    34    35   ar
    46    15    16    1
    47    16    17    1
    48    24    18   ar
    49    17    12    1
    50     8     1   ar
    51    35    30   ar
    52    49    40   ar
    53    49    44   ar
    54     5     9    1
@<TRIPOS>MOLECULE
*****
 49 54 0 0 0
SMALL
GASTEIGER

@<TRIPOS>ATOM
      1 C         141.9428  141.9298  167.5854 C.ar    1  UNL1        0.1208
      2 C         143.0405  142.7279  168.2243 C.ar    1  UNL1        0.0933
      3 C         143.7402  142.2005  169.4418 C.ar    1  UNL1        0.2638
      4 O         144.8378  142.9986  170.0807 O.2     1  UNL1       -0.2670
      5 N         143.3422  140.8751  170.0204 N.ar    1  UNL1       -0.2743
      6 C         142.2446  140.0770  169.3815 C.ar    1  UNL1        0.3316
      7 O         141.8466  138.7515  169.9601 O.2     1  UNL1       -0.2464
      8 N         141.5449  140.6043  168.1640 N.ar    1  UNL1       -0.2653
      9 H         143.8014  140.5290  170.8195 H       1  UNL1        0.1734
     10 O         137.8167  144.7246  162.8510 O.2     1  UNL1       -0.2699
     11 C         139.1441  144.0392  162.7154 C.2     1  UNL1        0.2491
     12 N         139.8438  143.5119  163.9329 N.am    1  UNL1       -0.2726
     13 C         141.1711  142.8265  163.7972 C.3     1  UNL1        0.1152
     14 C         141.8708  142.2991  165.0147 C.3     1  UNL1        0.1136
     15 N         141.2432  142.4571  166.3679 N.pl3   1  UNL1       -0.2908
     16 C         139.9157  143.1425  166.5035 C.3     1  UNL1        0.1136
     17 C         139.2161  143.6699  165.2860 C.3     1  UNL1        0.1152
     18 C         139.7718  143.8812  161.3622 C.ar    1  UNL1        0.0536
     19 C         140.9653  144.7092  160.9878 C.ar    1  UNL1        0.0054
     20 C         141.5930  144.5512  159.6346 C.ar    1  UNL1        0.0115
     21 C         141.0271  143.5653  158.6559 C.ar    1  UNL1        0.0616
     22 CL        141.6548  143.4073  157.3027 Cl      1  UNL1       -0.0823
     23 C         139.8336  142.7374  159.0303 C.ar    1  UNL1        0.0821
     24 C         139.2060  142.8954  160.3835 C.ar    1  UNL1        0.0092
     25 C         139.2678  141.7516  158.0516 C.3     1  UNL1        0.4194
     26 F         138.7020  140.7657  157.0728 F       1  UNL1       -0.1658
     27 F         138.2684  142.7745  157.5991 F       1  UNL1       -0.1658
     28 F         140.2673  140.7288  158.5040 F       1  UNL1       -0.1658
     29 C         140.4472  139.8062  167.5251 C.3     1  UNL1        0.1384
     30 C         140.6687  139.1617  166.1888 C.ar    1  UNL1        0.0008
     31 C         139.5039  138.8977  165.2812 C.ar    1  UNL1        0.0008
     32 C         139.7254  138.2532  163.9450 C.ar    1  UNL1        0.0396
     33 C         141.1117  137.8727  163.5163 C.ar    1  UNL1        0.1736
     34 C         142.2763  138.1367  164.4239 C.ar    1  UNL1        0.0396
     35 C         142.0549  138.7812  165.7602 C.ar    1  UNL1        0.0008
     36 O         141.3331  137.2282  162.1801 O.3     1  UNL1       -0.3410
     37 S         141.9292  138.0208  161.0547 S.O2    1  UNL1        0.1522
     38 O         143.2684  137.4034  161.3292 O.2     1  UNL1       -0.1313
     39 O         140.5900  138.6382  160.7802 O.2     1  UNL1       -0.1313
     40 C         142.5253  138.8134  159.9293 C.ar    1  UNL1        0.1448
     41 C         142.4397  138.2999  158.5226 C.ar    1  UNL1        0.0219
     42 C         143.0358  139.0924  157.3972 C.ar    1  UNL1        0.0015
     43 C         143.7175  140.3987  157.6786 C.ar    1  UNL1        0.0016
     44 C         143.8031  140.9122  159.0853 C.ar    1  UNL1        0.0205
     45 C         144.4848  142.2184  159.3667 C.ar    1  UNL1        0.0989
     46 N         144.5705  142.7319  160.7735 N.ar    1  UNL1       -0.2423
     47 C         143.9744  141.9393  161.8988 C.ar    1  UNL1        0.0989
     48 C         143.2926  140.6331  161.6175 C.ar    1  UNL1        0.0221
     49 C         143.2070  140.1196  160.2107 C.ar    1  UNL1        0.0236
@<TRIPOS>BOND
     1    10    11    2
     2    11    18    1
     3    18    19   ar
     4    19    20   ar
     5    20    21   ar
     6    21    22    1
     7    21    23   ar
     8    23    25    1
     9    25    26    1
    10    25    27    1
    11    25    28    1
    12    23    24   ar
    13    11    12   am
    14    12    13    1
    15    13    14    1
    16    14    15    1
    17    15     1    1
    18     1     2   ar
    19     2     3   ar
    20     3     4    2
    21     3     5   ar
    22     5     6   ar
    23     6     7    2
    24     6     8   ar
    25     8    29    1
    26    29    30    1
    27    30    31   ar
    28    31    32   ar
    29    32    33   ar
    30    33    36    1
    31    36    37    1
    32    37    38    2
    33    37    39    2
    34    37    40    1
    35    40    41   ar
    36    41    42   ar
    37    42    43   ar
    38    43    44   ar
    39    44    45   ar
    40    45    46   ar
    41    46    47   ar
    42    47    48   ar
    43    48    49   ar
    44    33    34   ar
    45    34    35   ar
    46    15    16    1
    47    16    17    1
    48    24    18   ar
    49    17    12    1
    50     8     1   ar
    51    35    30   ar
    52    49    40   ar
    53    49    44   ar
    54     5     9    1
@<TRIPOS>MOLECULE
*****
 49 54 0 0 0
SMALL
GASTEIGER

@<TRIPOS>ATOM
      1 C         141.2503  143.1099  156.3170 C.ar    1  UNL1        0.1208
      2 C         142.4188  143.4732  155.4494 C.ar    1  UNL1        0.0933
      3 C         142.5269  142.9112  154.0629 C.ar    1  UNL1        0.2638
      4 O         143.6954  143.2745  153.1954 O.2     1  UNL1       -0.2670
      5 N         141.4665  141.9858  153.5439 N.ar    1  UNL1       -0.2743
      6 C         140.2980  141.6225  154.4114 C.ar    1  UNL1        0.3316
      7 O         139.2377  140.6972  153.8925 O.2     1  UNL1       -0.2464
      8 N         140.1899  142.1845  155.7980 N.ar    1  UNL1       -0.2653
      9 H         141.5375  141.6170  152.6339 H       1  UNL1        0.1734
     10 O         140.0360  146.6153  162.1038 O.2     1  UNL1       -0.2699
     11 C         140.8179  145.3580  161.8630 C.2     1  UNL1        0.2491
     12 N         140.9260  144.7960  160.4765 N.am    1  UNL1       -0.2726
     13 C         141.7079  143.5388  160.2358 C.3     1  UNL1        0.1152
     14 C         141.8160  142.9767  158.8492 C.3     1  UNL1        0.1136
     15 N         141.1422  143.6719  157.7035 N.pl3   1  UNL1       -0.2908
     16 C         140.3603  144.9292  157.9443 C.3     1  UNL1        0.1136
     17 C         140.2522  145.4912  159.3308 C.3     1  UNL1        0.1152
     18 C         141.4917  144.6628  163.0088 C.ar    1  UNL1        0.0536
     19 C         142.9699  144.8147  163.2135 C.ar    1  UNL1        0.0054
     20 C         143.6437  144.1195  164.3593 C.ar    1  UNL1        0.0115
     21 C         142.8393  143.2724  165.3002 C.ar    1  UNL1        0.0616
     22 CL        143.5130  142.5771  166.4459 Cl      1  UNL1       -0.0823
     23 C         141.3611  143.1205  165.0954 C.ar    1  UNL1        0.0821
     24 C         140.6873  143.8157  163.9497 C.ar    1  UNL1        0.0092
     25 C         140.5568  142.2734  166.0363 C.3     1  UNL1        0.4194
     26 F         139.7523  141.4263  166.9774 F       1  UNL1       -0.1658
     27 F         141.0142  141.0395  165.3166 F       1  UNL1       -0.1658
     28 F         140.0993  143.5073  166.7561 F       1  UNL1       -0.1658
     29 C         139.0214  141.8212  156.6655 C.3     1  UNL1        0.1384
     30 C         139.2050  140.8713  157.8118 C.ar    1  UNL1        0.0008
     31 C         138.2103  140.8493  158.9344 C.ar    1  UNL1        0.0008
     32 C         138.3939  139.8994  160.0806 C.ar    1  UNL1        0.0396
     33 C         139.5722  138.9714  160.1043 C.ar    1  UNL1        0.1736
     34 C         140.5669  138.9934  158.9817 C.ar    1  UNL1        0.0396
     35 C         140.3833  139.9433  157.8355 C.ar    1  UNL1        0.0008
     36 O         139.7558  138.0214  161.2505 O.3     1  UNL1       -0.3410
     37 S         140.8062  138.2908  162.2870 S.O2    1  UNL1        0.1522
     38 O         139.9313  139.3436  162.9001 O.2     1  UNL1       -0.1313
     39 O         141.6812  137.2380  161.6739 O.2     1  UNL1       -0.1313
     40 C         141.8566  138.5602  163.3234 C.ar    1  UNL1        0.1448
     41 C         141.7806  137.8859  164.6612 C.ar    1  UNL1        0.0219
     42 C         142.8309  138.1553  165.6976 C.ar    1  UNL1        0.0015
     43 C         143.9573  139.0990  165.3963 C.ar    1  UNL1        0.0016
     44 C         144.0333  139.7733  164.0585 C.ar    1  UNL1        0.0205
     45 C         145.1596  140.7170  163.7572 C.ar    1  UNL1        0.0989
     46 N         145.2356  141.3912  162.4194 N.ar    1  UNL1       -0.2423
     47 C         144.1853  141.1219  161.3830 C.ar    1  UNL1        0.0989
     48 C         143.0589  140.1781  161.6843 C.ar    1  UNL1        0.0221
     49 C         142.9829  139.5039  163.0221 C.ar    1  UNL1        0.0236
@<TRIPOS>BOND
     1    10    11    2
     2    11    18    1
     3    18    19   ar
     4    19    20   ar
     5    20    21   ar
     6    21    22    1
     7    21    23   ar
     8    23    25    1
     9    25    26    1
    10    25    27    1
    11    25    28    1
    12    23    24   ar
    13    11    12   am
    14    12    13    1
    15    13    14    1
    16    14    15    1
    17    15     1    1
    18     1     2   ar
    19     2     3   ar
    20     3     4    2
    21     3     5   ar
    22     5     6   ar
    23     6     7    2
    24     6     8   ar
    25     8    29    1
    26    29    30    1
    27    30    31   ar
    28    31    32   ar
    29    32    33   ar
    30    33    36    1
    31    36    37    1
    32    37    38    2
    33    37    39    2
    34    37    40    1
    35    40    41   ar
    36    41    42   ar
    37    42    43   ar
    38    43    44   ar
    39    44    45   ar
    40    45    46   ar
    41    46    47   ar
    42    47    48   ar
    43    48    49   ar
    44    33    34   ar
    45    34    35   ar
    46    15    16    1
    47    16    17    1
    48    24    18   ar
    49    17    12    1
    50     8     1   ar
    51    35    30   ar
    52    49    40   ar
    53    49    44   ar
    54     5     9    1
@<TRIPOS>MOLECULE
*****
 49 54 0 0 0
SMALL
GASTEIGER

@<TRIPOS>ATOM
      1 C         144.8257  142.1554  157.4022 C.ar    1  UNL1        0.1208
      2 C         146.2842  142.4484  157.2099 C.ar    1  UNL1        0.0933
      3 C         146.9989  141.9335  155.9958 C.ar    1  UNL1        0.2638
      4 O         148.4573  142.2265  155.8035 O.2     1  UNL1       -0.2670
      5 N         146.2551  141.1257  154.9740 N.ar    1  UNL1       -0.2743
      6 C         144.7967  140.8327  155.1662 C.ar    1  UNL1        0.3316
      7 O         144.0529  140.0248  154.1444 O.2     1  UNL1       -0.2464
      8 N         144.0819  141.3475  156.3804 N.ar    1  UNL1       -0.2653
      9 H         146.7242  140.7877  154.1771 H       1  UNL1        0.1734
     10 O         140.8411  145.1946  162.1072 O.2     1  UNL1       -0.2699
     11 C         141.9669  144.2150  162.2587 C.2     1  UNL1        0.2491
     12 N         142.6816  143.7001  161.0446 N.am    1  UNL1       -0.2726
     13 C         143.8074  142.7205  161.1961 C.3     1  UNL1        0.1152
     14 C         144.5221  142.2056  159.9820 C.3     1  UNL1        0.1136
     15 N         144.1110  142.6703  158.6163 N.pl3   1  UNL1       -0.2908
     16 C         142.9852  143.6499  158.4648 C.3     1  UNL1        0.1136
     17 C         142.2705  144.1648  159.6789 C.3     1  UNL1        0.1152
     18 C         142.3780  143.7503  163.6244 C.ar    1  UNL1        0.0536
     19 C         143.7920  143.9411  164.0874 C.ar    1  UNL1        0.0054
     20 C         144.2031  143.4764  165.4531 C.ar    1  UNL1        0.0115
     21 C         143.2002  142.8209  166.3557 C.ar    1  UNL1        0.0616
     22 CL        143.6113  142.3562  167.7214 Cl      1  UNL1       -0.0823
     23 C         141.7864  142.6301  165.8926 C.ar    1  UNL1        0.0821
     24 C         141.3753  143.0948  164.5269 C.ar    1  UNL1        0.0092
     25 C         140.7836  141.9746  166.7952 C.3     1  UNL1        0.4194
     26 F         139.7807  141.3191  167.6979 F       1  UNL1       -0.1658
     27 F         141.2226  140.6270  166.3042 F       1  UNL1       -0.1658
     28 F         140.3446  143.3222  167.2862 F       1  UNL1       -0.1658
     29 C         142.6235  141.0545  156.5727 C.3     1  UNL1        0.1384
     30 C         142.1776  140.1767  157.7043 C.ar    1  UNL1        0.0008
     31 C         140.8165  140.3629  158.3067 C.ar    1  UNL1        0.0008
     32 C         140.3707  139.4850  159.4383 C.ar    1  UNL1        0.0396
     33 C         141.2860  138.4210  159.9676 C.ar    1  UNL1        0.1736
     34 C         142.6470  138.2348  159.3653 C.ar    1  UNL1        0.0396
     35 C         143.0929  139.1127  158.2336 C.ar    1  UNL1        0.0008
     36 O         140.8402  137.5431  161.0993 O.3     1  UNL1       -0.3410
     37 S         140.1243  138.1402  162.2745 S.O2    1  UNL1        0.1522
     38 O         141.4355  138.5991  162.8401 O.2     1  UNL1       -0.1313
     39 O         138.8130  137.6812  161.7089 O.2     1  UNL1       -0.1313
     40 C         139.4084  138.7372  163.4497 C.ar    1  UNL1        0.1448
     41 C         139.1791  137.9166  164.6842 C.ar    1  UNL1        0.0219
     42 C         138.4633  138.5136  165.8594 C.ar    1  UNL1        0.0015
     43 C         137.9767  139.9313  165.8001 C.ar    1  UNL1        0.0016
     44 C         138.2060  140.7519  164.5656 C.ar    1  UNL1        0.0205
     45 C         137.7195  142.1696  164.5062 C.ar    1  UNL1        0.0989
     46 N         137.9488  142.9902  163.2717 N.ar    1  UNL1       -0.2423
     47 C         138.6647  142.3932  162.0965 C.ar    1  UNL1        0.0989
     48 C         139.1512  140.9754  162.1558 C.ar    1  UNL1        0.0221
     49 C         138.9219  140.1548  163.3903 C.ar    1  UNL1        0.0236
@<TRIPOS>BOND
     1    10    11    2
     2    11    18    1
     3    18    19   ar
     4    19    20   ar
     5    20    21   ar
     6    21    22    1
     7    21    23   ar
     8    23    25    1
     9    25    26    1
    10    25    27    1
    11    25    28    1
    12    23    24   ar
    13    11    12   am
    14    12    13    1
    15    13    14    1
    16    14    15    1
    17    15     1    1
    18     1     2   ar
    19     2     3   ar
    20     3     4    2
    21     3     5   ar
    22     5     6   ar
    23     6     7    2
    24     6     8   ar
    25     8    29    1
    26    29    30    1
    27    30    31   ar
    28    31    32   ar
    29    32    33   ar
    30    33    36    1
    31    36    37    1
    32    37    38    2
    33    37    39    2
    34    37    40    1
    35    40    41   ar
    36    41    42   ar
    37    42    43   ar
    38    43    44   ar
    39    44    45   ar
    40    45    46   ar
    41    46    47   ar
    42    47    48   ar
    43    48    49   ar
    44    33    34   ar
    45    34    35   ar
    46    15    16    1
    47    16    17    1
    48    24    18   ar
    49    17    12    1
    50     8     1   ar
    51    35    30   ar
    52    49    40   ar
    53    49    44   ar
    54     5     9    1
@<TRIPOS>MOLECULE
*****
 49 54 0 0 0
SMALL
GASTEIGER

@<TRIPOS>ATOM
      1 C         140.5024  140.8984  168.1050 C.ar    1  UNL1        0.1208
      2 C         139.7040  141.8573  168.9376 C.ar    1  UNL1        0.0933
      3 C         140.1971  142.2625  170.2950 C.ar    1  UNL1        0.2638
      4 O         139.3986  143.2213  171.1275 O.2     1  UNL1       -0.2670
      5 N         141.4886  141.7089  170.8199 N.ar    1  UNL1       -0.2743
      6 C         142.2870  140.7501  169.9874 C.ar    1  UNL1        0.3316
      7 O         143.5785  140.1965  170.5123 O.2     1  UNL1       -0.2464
      8 N         141.7939  140.3448  168.6299 N.ar    1  UNL1       -0.2653
      9 H         141.8122  141.9749  171.7108 H       1  UNL1        0.1734
     10 O         137.9381  137.9148  162.4683 O.2     1  UNL1       -0.2699
     11 C         138.5301  139.2775  162.6753 C.2     1  UNL1        0.2491
     12 N         139.0231  139.6827  164.0327 N.am    1  UNL1       -0.2726
     13 C         139.6150  141.0453  164.2396 C.3     1  UNL1        0.1152
     14 C         140.1082  141.4506  165.5971 C.3     1  UNL1        0.1136
     15 N         140.0093  140.4932  166.7476 N.pl3   1  UNL1       -0.2908
     16 C         139.4174  139.1305  166.5406 C.3     1  UNL1        0.1136
     17 C         138.9243  138.7253  165.1832 C.3     1  UNL1        0.1152
     18 C         138.6289  140.2349  161.5248 C.ar    1  UNL1        0.0536
     19 C         137.9975  141.5921  161.6221 C.ar    1  UNL1        0.0054
     20 C         138.0963  142.5495  160.4716 C.ar    1  UNL1        0.0115
     21 C         138.8265  142.1497  159.2238 C.ar    1  UNL1        0.0616
     22 CL        138.9254  143.1071  158.0733 Cl      1  UNL1       -0.0823
     23 C         139.4579  140.7926  159.1265 C.ar    1  UNL1        0.0821
     24 C         139.3591  139.8352  160.2770 C.ar    1  UNL1        0.0092
     25 C         140.1881  140.3929  157.8788 C.3     1  UNL1        0.4194
     26 F         140.9183  139.9931  156.6309 F       1  UNL1       -0.1658
     27 F         141.4900  140.7756  158.5180 F       1  UNL1       -0.1658
     28 F         138.8863  140.0102  157.2395 F       1  UNL1       -0.1658
     29 C         142.5924  139.3860  167.7974 C.3     1  UNL1        0.1384
     30 C         143.1780  139.8344  166.4913 C.ar    1  UNL1        0.0008
     31 C         143.5034  138.8259  165.4296 C.ar    1  UNL1        0.0008
     32 C         144.0890  139.2743  164.1235 C.ar    1  UNL1        0.0396
     33 C         144.3493  140.7313  163.8791 C.ar    1  UNL1        0.1736
     34 C         144.0240  141.7397  164.9407 C.ar    1  UNL1        0.0396
     35 C         143.4383  141.2913  166.2468 C.ar    1  UNL1        0.0008
     36 O         144.9350  141.1797  162.5729 O.3     1  UNL1       -0.3410
     37 S         144.1338  142.0511  161.6515 S.O2    1  UNL1        0.1522
     38 O         144.9469  143.2403  162.0692 O.2     1  UNL1       -0.1313
     39 O         143.3207  140.8618  161.2338 O.2     1  UNL1       -0.1313
     40 C         143.3327  142.9224  160.7302 C.ar    1  UNL1        0.1448
     41 C         143.6627  142.9704  159.2677 C.ar    1  UNL1        0.0219
     42 C         142.8616  143.8418  158.3464 C.ar    1  UNL1        0.0015
     43 C         141.7305  144.6652  158.8875 C.ar    1  UNL1        0.0016
     44 C         141.4005  144.6172  160.3499 C.ar    1  UNL1        0.0205
     45 C         140.2695  145.4405  160.8911 C.ar    1  UNL1        0.0989
     46 N         139.9396  145.3924  162.3536 N.ar    1  UNL1       -0.2423
     47 C         140.7407  144.5211  163.2749 C.ar    1  UNL1        0.0989
     48 C         141.8718  143.6977  162.7338 C.ar    1  UNL1        0.0221
     49 C         142.2017  143.7457  161.2713 C.ar    1  UNL1        0.0236
@<TRIPOS>BOND
     1    10    11    2
     2    11    18    1
     3    18    19   ar
     4    19    20   ar
     5    20    21   ar
     6    21    22    1
     7    21    23   ar
     8    23    25    1
     9    25    26    1
    10    25    27    1
    11    25    28    1
    12    23    24   ar
    13    11    12   am
    14    12    13    1
    15    13    14    1
    16    14    15    1
    17    15     1    1
    18     1     2   ar
    19     2     3   ar
    20     3     4    2
    21     3     5   ar
    22     5     6   ar
    23     6     7    2
    24     6     8   ar
    25     8    29    1
    26    29    30    1
    27    30    31   ar
    28    31    32   ar
    29    32    33   ar
    30    33    36    1
    31    36    37    1
    32    37    38    2
    33    37    39    2
    34    37    40    1
    35    40    41   ar
    36    41    42   ar
    37    42    43   ar
    38    43    44   ar
    39    44    45   ar
    40    45    46   ar
    41    46    47   ar
    42    47    48   ar
    43    48    49   ar
    44    33    34   ar
    45    34    35   ar
    46    15    16    1
    47    16    17    1
    48    24    18   ar
    49    17    12    1
    50     8     1   ar
    51    35    30   ar
    52    49    40   ar
    53    49    44   ar
    54     5     9    1
@<TRIPOS>MOLECULE
*****
 49 54 0 0 0
SMALL
GASTEIGER

@<TRIPOS>ATOM
      1 C         141.7470  141.6888  167.7315 C.ar    1  UNL1        0.1208
      2 C         142.1867  142.8035  168.6339 C.ar    1  UNL1        0.0933
      3 C         142.8908  142.4927  169.9214 C.ar    1  UNL1        0.2638
      4 O         143.3304  143.6074  170.8237 O.2     1  UNL1       -0.2670
      5 N         143.1552  141.0674  170.3065 N.ar    1  UNL1       -0.2743
      6 C         142.7156  139.9527  169.4042 C.ar    1  UNL1        0.3316
      7 O         142.9801  138.5273  169.7893 O.2     1  UNL1       -0.2464
      8 N         142.0115  140.2634  168.1166 N.ar    1  UNL1       -0.2653
      9 H         143.6174  140.8634  171.1516 H       1  UNL1        0.1734
     10 O         137.5054  142.5069  162.3845 O.2     1  UNL1       -0.2699
     11 C         138.9305  142.9317  162.5815 C.2     1  UNL1        0.2491
     12 N         139.6346  142.6210  163.8690 N.am    1  UNL1       -0.2726
     13 C         141.0597  143.0458  164.0659 C.3     1  UNL1        0.1152
     14 C         141.7638  142.7350  165.3535 C.3     1  UNL1        0.1136
     15 N         141.0429  141.9995  166.4440 N.pl3   1  UNL1       -0.2908
     16 C         139.6178  141.5747  166.2470 C.3     1  UNL1        0.1136
     17 C         138.9137  141.8855  164.9595 C.3     1  UNL1        0.1152
     18 C         139.6515  143.6672  161.4910 C.ar    1  UNL1        0.0536
     19 C         139.5353  145.1593  161.3889 C.ar    1  UNL1        0.0054
     20 C         140.2562  145.8948  160.2983 C.ar    1  UNL1        0.0115
     21 C         141.0933  145.1383  159.3099 C.ar    1  UNL1        0.0616
     22 CL        141.8142  145.8738  158.2193 Cl      1  UNL1       -0.0823
     23 C         141.2094  143.6463  159.4120 C.ar    1  UNL1        0.0821
     24 C         140.4885  142.9108  160.5025 C.ar    1  UNL1        0.0092
     25 C         142.0465  142.8898  158.4235 C.3     1  UNL1        0.4194
     26 F         142.8837  142.1333  157.4351 F       1  UNL1       -0.1658
     27 F         140.8605  142.7664  157.5136 F       1  UNL1       -0.1658
     28 F         143.2325  143.0132  159.3335 F       1  UNL1       -0.1658
     29 C         141.5719  139.1488  167.2143 C.3     1  UNL1        0.1384
     30 C         142.2064  138.9811  165.8655 C.ar    1  UNL1        0.0008
     31 C         141.4638  138.2753  164.7698 C.ar    1  UNL1        0.0008
     32 C         142.0983  138.1076  163.4210 C.ar    1  UNL1        0.0396
     33 C         143.4754  138.6458  163.1679 C.ar    1  UNL1        0.1736
     34 C         144.2179  139.3516  164.2635 C.ar    1  UNL1        0.0396
     35 C         143.5834  139.5193  165.6123 C.ar    1  UNL1        0.0008
     36 O         144.1099  138.4782  161.8190 O.3     1  UNL1       -0.3410
     37 S         143.3096  138.7350  160.5766 S.O2    1  UNL1        0.1522
     38 O         143.1288  137.2579  160.3879 O.2     1  UNL1       -0.1313
     39 O         143.4904  140.2120  160.7653 O.2     1  UNL1       -0.1313
     40 C         142.5093  138.9916  159.3342 C.ar    1  UNL1        0.1448
     41 C         143.1745  138.9448  157.9905 C.ar    1  UNL1        0.0219
     42 C         142.3742  139.2015  156.7481 C.ar    1  UNL1        0.0015
     43 C         140.9087  139.5051  156.8493 C.ar    1  UNL1        0.0016
     44 C         140.2435  139.5519  158.1930 C.ar    1  UNL1        0.0205
     45 C         138.7781  139.8555  158.2942 C.ar    1  UNL1        0.0989
     46 N         138.1129  139.9024  159.6379 N.ar    1  UNL1       -0.2423
     47 C         138.9132  139.6457  160.8803 C.ar    1  UNL1        0.0989
     48 C         140.3787  139.3421  160.7791 C.ar    1  UNL1        0.0221
     49 C         141.0439  139.2952  159.4354 C.ar    1  UNL1        0.0236
@<TRIPOS>BOND
     1    10    11    2
     2    11    18    1
     3    18    19   ar
     4    19    20   ar
     5    20    21   ar
     6    21    22    1
     7    21    23   ar
     8    23    25    1
     9    25    26    1
    10    25    27    1
    11    25    28    1
    12    23    24   ar
    13    11    12   am
    14    12    13    1
    15    13    14    1
    16    14    15    1
    17    15     1    1
    18     1     2   ar
    19     2     3   ar
    20     3     4    2
    21     3     5   ar
    22     5     6   ar
    23     6     7    2
    24     6     8   ar
    25     8    29    1
    26    29    30    1
    27    30    31   ar
    28    31    32   ar
    29    32    33   ar
    30    33    36    1
    31    36    37    1
    32    37    38    2
    33    37    39    2
    34    37    40    1
    35    40    41   ar
    36    41    42   ar
    37    42    43   ar
    38    43    44   ar
    39    44    45   ar
    40    45    46   ar
    41    46    47   ar
    42    47    48   ar
    43    48    49   ar
    44    33    34   ar
    45    34    35   ar
    46    15    16    1
    47    16    17    1
    48    24    18   ar
    49    17    12    1
    50     8     1   ar
    51    35    30   ar
    52    49    40   ar
    53    49    44   ar
    54     5     9    1
@<TRIPOS>MOLECULE
*****
 49 54 0 0 0
SMALL
GASTEIGER

@<TRIPOS>ATOM
      1 C         140.8338  142.3528  168.1247 C.ar    1  UNL1        0.1208
      2 C         140.4284  143.5740  168.8956 C.ar    1  UNL1        0.0933
      3 C         139.8841  143.4365  170.2866 C.ar    1  UNL1        0.2638
      4 O         139.4788  144.6577  171.0575 O.2     1  UNL1       -0.2670
      5 N         139.7451  142.0777  170.9066 N.ar    1  UNL1       -0.2743
      6 C         140.1504  140.8565  170.1357 C.ar    1  UNL1        0.3316
      7 O         140.0114  139.4977  170.7557 O.2     1  UNL1       -0.2464
      8 N         140.6948  140.9940  168.7447 N.ar    1  UNL1       -0.2653
      9 H         139.3878  141.9874  171.8195 H       1  UNL1        0.1734
     10 O         144.4809  142.7375  162.3108 O.2     1  UNL1       -0.2699
     11 C         143.0112  142.9030  162.5609 C.2     1  UNL1        0.2491
     12 N         142.4668  142.7654  163.9518 N.am    1  UNL1       -0.2726
     13 C         140.9971  142.9309  164.2017 C.3     1  UNL1        0.1152
     14 C         140.4527  142.7933  165.5927 C.3     1  UNL1        0.1136
     15 N         141.3781  142.4903  166.7337 N.pl3   1  UNL1       -0.2908
     16 C         142.8479  142.3248  166.4837 C.3     1  UNL1        0.1136
     17 C         143.3922  142.4624  165.0928 C.3     1  UNL1        0.1152
     18 C         142.0858  143.2060  161.4199 C.ar    1  UNL1        0.0536
     19 C         140.6169  142.9321  161.5524 C.ar    1  UNL1        0.0054
     20 C         139.6915  143.2351  160.4115 C.ar    1  UNL1        0.0115
     21 C         140.2350  143.8121  159.1379 C.ar    1  UNL1        0.0616
     22 CL        139.3096  144.1151  157.9969 Cl      1  UNL1       -0.0823
     23 C         141.7038  144.0860  159.0054 C.ar    1  UNL1        0.0821
     24 C         142.6292  143.7829  160.1464 C.ar    1  UNL1        0.0092
     25 C         142.2472  144.6629  157.7319 C.3     1  UNL1        0.4194
     26 F         142.7906  145.2399  156.4584 F       1  UNL1       -0.1658
     27 F         142.4992  143.2786  157.2123 F       1  UNL1       -0.1658
     28 F         141.9952  146.0473  158.2516 F       1  UNL1       -0.1658
     29 C         141.1001  139.7728  167.9738 C.3     1  UNL1        0.1384
     30 C         140.4149  139.4398  166.6817 C.ar    1  UNL1        0.0008
     31 C         141.2249  139.0348  165.4858 C.ar    1  UNL1        0.0008
     32 C         140.5396  138.7018  164.1937 C.ar    1  UNL1        0.0396
     33 C         139.0444  138.7738  164.0974 C.ar    1  UNL1        0.1736
     34 C         138.2345  139.1789  165.2932 C.ar    1  UNL1        0.0396
     35 C         138.9197  139.5118  166.5853 C.ar    1  UNL1        0.0008
     36 O         138.3592  138.4409  162.8053 O.3     1  UNL1       -0.3410
     37 S         138.8952  138.9789  161.5117 S.O2    1  UNL1        0.1522
     38 O         138.4668  140.3604  161.9089 O.2     1  UNL1       -0.1313
     39 O         139.3236  137.5974  161.1146 O.2     1  UNL1       -0.1313
     40 C         139.4312  139.5170  160.2182 C.ar    1  UNL1        0.1448
     41 C         138.4902  139.8623  159.1023 C.ar    1  UNL1        0.0219
     42 C         139.0262  140.4004  157.8088 C.ar    1  UNL1        0.0015
     43 C         140.5032  140.5932  157.6312 C.ar    1  UNL1        0.0016
     44 C         141.4441  140.2478  158.7472 C.ar    1  UNL1        0.0205
     45 C         142.9210  140.4406  158.5697 C.ar    1  UNL1        0.0989
     46 N         143.8620  140.0952  159.6857 N.ar    1  UNL1       -0.2423
     47 C         143.3260  139.5572  160.9791 C.ar    1  UNL1        0.0989
     48 C         141.8490  139.3644  161.1567 C.ar    1  UNL1        0.0221
     49 C         140.9081  139.7097  160.0407 C.ar    1  UNL1        0.0236
@<TRIPOS>BOND
     1    10    11    2
     2    11    18    1
     3    18    19   ar
     4    19    20   ar
     5    20    21   ar
     6    21    22    1
     7    21    23   ar
     8    23    25    1
     9    25    26    1
    10    25    27    1
    11    25    28    1
    12    23    24   ar
    13    11    12   am
    14    12    13    1
    15    13    14    1
    16    14    15    1
    17    15     1    1
    18     1     2   ar
    19     2     3   ar
    20     3     4    2
    21     3     5   ar
    22     5     6   ar
    23     6     7    2
    24     6     8   ar
    25     8    29    1
    26    29    30    1
    27    30    31   ar
    28    31    32   ar
    29    32    33   ar
    30    33    36    1
    31    36    37    1
    32    37    38    2
    33    37    39    2
    34    37    40    1
    35    40    41   ar
    36    41    42   ar
    37    42    43   ar
    38    43    44   ar
    39    44    45   ar
    40    45    46   ar
    41    46    47   ar
    42    47    48   ar
    43    48    49   ar
    44    33    34   ar
    45    34    35   ar
    46    15    16    1
    47    16    17    1
    48    24    18   ar
    49    17    12    1
    50     8     1   ar
    51    35    30   ar
    52    49    40   ar
    53    49    44   ar
    54     5     9    1
