@<TRIPOS>MOLECULE
*****
 35 38 0 0 0
SMALL
GASTEIGER

@<TRIPOS>ATOM
      1 C         142.4636  139.3201  159.8802 C.3     1  UNL1        0.0758
      2 C         142.8803  138.1914  160.7759 C.3     1  UNL1        0.0370
      3 C         141.9187  137.6431  161.7881 C.3     1  UNL1        0.0741
      4 N         140.5405  138.2235  161.9047 N.3     1  UNL1       -0.2688
      5 C         140.1238  139.3522  161.0090 C.3     1  UNL1        0.0741
      6 C         141.0854  139.9006  159.9968 C.3     1  UNL1        0.0370
      7 O         142.2434  138.4989  157.0032 O.2     1  UNL1       -0.2526
      8 C         143.3151  139.4579  157.4295 C.2     1  UNL1        0.3039
      9 N         143.4252  139.8685  158.8679 N.am    1  UNL1       -0.2903
     10 N         144.2767  140.0063  156.4172 N.am    1  UNL1       -0.2641
     11 C         144.1666  139.5957  154.9787 C.3     1  UNL1        0.0949
     12 C         145.1281  140.1441  153.9665 C.3     1  UNL1        0.0217
     13 C         146.1999  141.1031  154.3928 C.3     1  UNL1        0.0060
     14 C         146.3100  141.5137  155.8312 C.3     1  UNL1        0.0493
     15 C         145.3484  140.9653  156.8434 C.3     1  UNL1        0.0974
     16 H         144.1287  140.4980  159.1477 H       1  UNL1        0.1509
     17 C         147.3817  142.4727  156.2575 C.3     1  UNL1        0.1388
     18 O         147.1467  143.3921  157.4191 O.3     1  UNL1       -0.3819
     19 H         146.4443  144.0226  157.1955 H       1  UNL1        0.2104
     20 C         139.5789  137.6751  162.9169 C.3     1  UNL1        0.1007
     21 C         139.5319  138.2567  164.2988 C.ar    1  UNL1        0.0129
     22 C         138.4501  138.0326  165.3134 C.ar    1  UNL1        0.0176
     23 C         138.8080  138.8019  166.5503 C.ar    1  UNL1        0.0799
     24 N         140.1111  139.5015  166.3002 N.ar    1  UNL1       -0.3038
     25 C         140.5585  139.1645  164.9087 C.ar    1  UNL1        0.0772
     26 C         140.8390  140.3832  167.2711 C.ar    1  UNL1        0.0640
     27 C         140.4115  141.8091  167.4555 C.ar    1  UNL1        0.0175
     28 C         141.1394  142.6908  168.4264 C.ar    1  UNL1        0.0053
     29 C         142.2948  142.1467  169.2129 C.ar    1  UNL1        0.0715
     30 C         142.7225  140.7208  169.0285 C.ar    1  UNL1        0.0053
     31 C         141.9946  139.8391  168.0576 C.ar    1  UNL1        0.0175
     32 C         143.0227  143.0284  170.1838 C.3     1  UNL1        0.4186
     33 F         143.7507  143.9101  171.1547 F       1  UNL1       -0.1659
     34 F         141.8046  143.8945  170.3105 F       1  UNL1       -0.1659
     35 F         144.2409  142.1623  170.0571 F       1  UNL1       -0.1659
@<TRIPOS>BOND
     1     7     8    2
     2     8     9   am
     3     9     1    1
     4     1     2    1
     5     2     3    1
     6     3     4    1
     7     4    20    1
     8    20    21    1
     9    21    22   ar
    10    22    23   ar
    11    23    24   ar
    12    24    26    1
    13    26    27   ar
    14    27    28   ar
    15    28    29   ar
    16    29    32    1
    17    32    33    1
    18    32    34    1
    19    32    35    1
    20    29    30   ar
    21    30    31   ar
    22    24    25   ar
    23     4     5    1
    24     5     6    1
    25     8    10   am
    26    10    11    1
    27    11    12    1
    28    12    13    1
    29    13    14    1
    30    14    17    1
    31    17    18    1
    32    14    15    1
    33     6     1    1
    34    15    10    1
    35    25    21   ar
    36    31    26   ar
    37     9    16    1
    38    18    19    1
@<TRIPOS>MOLECULE
*****
 35 38 0 0 0
SMALL
GASTEIGER

@<TRIPOS>ATOM
      1 C         142.6679  138.8332  159.0874 C.3     1  UNL1        0.0758
      2 C         143.7244  139.8920  158.9744 C.3     1  UNL1        0.0370
      3 C         143.5254  141.2236  159.6355 C.3     1  UNL1        0.0741
      4 N         142.2699  141.4965  160.4096 N.3     1  UNL1       -0.2688
      5 C         141.2134  140.4378  160.5226 C.3     1  UNL1        0.0741
      6 C         141.4124  139.1061  159.8615 C.3     1  UNL1        0.0370
      7 O         141.3364  138.2471  156.4637 O.2     1  UNL1       -0.2526
      8 C         142.2011  137.2085  157.1145 C.2     1  UNL1        0.3039
      9 N         142.8668  137.5015  158.4263 N.am    1  UNL1       -0.2903
     10 N         142.4001  135.8768  156.4533 N.am    1  UNL1       -0.2641
     11 C         141.7343  135.5838  155.1415 C.3     1  UNL1        0.0949
     12 C         141.9333  134.2521  154.4805 C.3     1  UNL1        0.0217
     13 C         142.7980  133.2134  155.1312 C.3     1  UNL1        0.0060
     14 C         143.4637  133.5065  156.4430 C.3     1  UNL1        0.0493
     15 C         143.2648  134.8381  157.1041 C.3     1  UNL1        0.0974
     16 H         143.4344  136.8198  158.8534 H       1  UNL1        0.1509
     17 C         144.3284  132.4678  157.0938 C.3     1  UNL1        0.1388
     18 O         145.7551  132.3016  156.6616 O.3     1  UNL1       -0.3819
     19 H         145.7805  131.9833  155.7456 H       1  UNL1        0.2104
     20 C         142.0710  142.8282  161.0707 C.3     1  UNL1        0.1007
     21 C         141.2832  142.9234  162.3436 C.ar    1  UNL1        0.0129
     22 C         140.1936  143.9125  162.6343 C.ar    1  UNL1        0.0176
     23 C         139.6837  143.6466  164.0197 C.ar    1  UNL1        0.0799
     24 N         140.4582  142.4932  164.5853 N.ar    1  UNL1       -0.3038
     25 C         141.4467  142.0462  163.5494 C.ar    1  UNL1        0.0772
     26 C         140.2761  141.8922  165.9475 C.ar    1  UNL1        0.0640
     27 C         139.7061  140.5120  166.0883 C.ar    1  UNL1        0.0175
     28 C         139.5240  139.9111  167.4505 C.ar    1  UNL1        0.0053
     29 C         139.9119  140.6904  168.6720 C.ar    1  UNL1        0.0715
     30 C         140.4820  142.0707  168.5313 C.ar    1  UNL1        0.0053
     31 C         140.6641  142.6716  167.1690 C.ar    1  UNL1        0.0175
     32 C         139.7298  140.0895  170.0342 C.3     1  UNL1        0.4186
     33 F         139.5476  139.4886  171.3965 F       1  UNL1       -0.1659
     34 F         141.0942  139.4727  169.9445 F       1  UNL1       -0.1659
     35 F         138.3654  140.7063  170.1240 F       1  UNL1       -0.1659
@<TRIPOS>BOND
     1     7     8    2
     2     8     9   am
     3     9     1    1
     4     1     2    1
     5     2     3    1
     6     3     4    1
     7     4    20    1
     8    20    21    1
     9    21    22   ar
    10    22    23   ar
    11    23    24   ar
    12    24    26    1
    13    26    27   ar
    14    27    28   ar
    15    28    29   ar
    16    29    32    1
    17    32    33    1
    18    32    34    1
    19    32    35    1
    20    29    30   ar
    21    30    31   ar
    22    24    25   ar
    23     4     5    1
    24     5     6    1
    25     8    10   am
    26    10    11    1
    27    11    12    1
    28    12    13    1
    29    13    14    1
    30    14    17    1
    31    17    18    1
    32    14    15    1
    33     6     1    1
    34    15    10    1
    35    25    21   ar
    36    31    26   ar
    37     9    16    1
    38    18    19    1
@<TRIPOS>MOLECULE
*****
 35 38 0 0 0
SMALL
GASTEIGER

@<TRIPOS>ATOM
      1 C         138.5919  140.7503  159.8002 C.3     1  UNL1        0.0758
      2 C         137.9448  141.0934  161.1092 C.3     1  UNL1        0.0370
      3 C         138.0287  140.1361  162.2609 C.3     1  UNL1        0.0741
      4 N         138.7598  138.8358  162.1036 N.3     1  UNL1       -0.2688
      5 C         139.4069  138.4927  160.7946 C.3     1  UNL1        0.0741
      6 C         139.3229  139.4500  159.6429 C.3     1  UNL1        0.0370
      7 O         136.5800  140.3017  157.6204 O.2     1  UNL1       -0.2526
      8 C         137.5020  141.4833  157.5585 C.2     1  UNL1        0.3039
      9 N         138.5079  141.7076  158.6483 N.am    1  UNL1       -0.2903
     10 N         137.4181  142.4406  156.4066 N.am    1  UNL1       -0.2641
     11 C         136.4122  142.2162  155.3168 C.3     1  UNL1        0.0949
     12 C         136.3283  143.1735  154.1650 C.3     1  UNL1        0.0217
     13 C         137.2503  144.3551  154.1031 C.3     1  UNL1        0.0060
     14 C         138.2561  144.5794  155.1930 C.3     1  UNL1        0.0493
     15 C         138.3401  143.6221  156.3447 C.3     1  UNL1        0.0974
     16 H         139.1130  142.4831  158.6077 H       1  UNL1        0.1509
     17 C         139.1781  145.7610  155.1311 C.3     1  UNL1        0.1388
     18 O         139.2228  146.7378  156.2685 O.3     1  UNL1       -0.3819
     19 H         138.3719  147.1991  156.3321 H       1  UNL1        0.2104
     20 C         138.8438  137.8785  163.2555 C.3     1  UNL1        0.1007
     21 C         138.9778  138.3997  164.6556 C.ar    1  UNL1        0.0129
     22 C         138.0536  138.1027  165.7991 C.ar    1  UNL1        0.0176
     23 C         138.5641  138.8288  167.0083 C.ar    1  UNL1        0.0799
     24 N         139.8038  139.5747  166.6121 N.ar    1  UNL1       -0.3038
     25 C         140.0594  139.3095  165.1580 C.ar    1  UNL1        0.0772
     26 C         140.6408  140.4347  167.5119 C.ar    1  UNL1        0.0640
     27 C         140.0809  141.7133  168.0609 C.ar    1  UNL1        0.0175
     28 C         140.9179  142.5733  168.9608 C.ar    1  UNL1        0.0053
     29 C         142.3149  142.1548  169.3115 C.ar    1  UNL1        0.0715
     30 C         142.8749  140.8762  168.7624 C.ar    1  UNL1        0.0053
     31 C         142.0379  140.0161  167.8626 C.ar    1  UNL1        0.0175
     32 C         143.1519  143.0148  170.2113 C.3     1  UNL1        0.4186
     33 F         143.9890  143.8748  171.1112 F       1  UNL1       -0.1659
     34 F         142.0213  143.9936  170.3275 F       1  UNL1       -0.1659
     35 F         144.2827  142.0360  170.0951 F       1  UNL1       -0.1659
@<TRIPOS>BOND
     1     7     8    2
     2     8     9   am
     3     9     1    1
     4     1     2    1
     5     2     3    1
     6     3     4    1
     7     4    20    1
     8    20    21    1
     9    21    22   ar
    10    22    23   ar
    11    23    24   ar
    12    24    26    1
    13    26    27   ar
    14    27    28   ar
    15    28    29   ar
    16    29    32    1
    17    32    33    1
    18    32    34    1
    19    32    35    1
    20    29    30   ar
    21    30    31   ar
    22    24    25   ar
    23     4     5    1
    24     5     6    1
    25     8    10   am
    26    10    11    1
    27    11    12    1
    28    12    13    1
    29    13    14    1
    30    14    17    1
    31    17    18    1
    32    14    15    1
    33     6     1    1
    34    15    10    1
    35    25    21   ar
    36    31    26   ar
    37     9    16    1
    38    18    19    1
@<TRIPOS>MOLECULE
*****
 35 38 0 0 0
SMALL
GASTEIGER

@<TRIPOS>ATOM
      1 C         142.3135  138.7164  159.7838 C.3     1  UNL1        0.0758
      2 C         142.9894  138.1068  160.9760 C.3     1  UNL1        0.0370
      3 C         142.1707  137.6196  162.1345 C.3     1  UNL1        0.0741
      4 N         140.6761  137.7419  162.1009 N.3     1  UNL1       -0.2688
      5 C         140.0002  138.3516  160.9086 C.3     1  UNL1        0.0741
      6 C         140.8189  138.8388  159.7501 C.3     1  UNL1        0.0370
      7 O         143.9782  141.1968  160.0611 O.2     1  UNL1       -0.2526
      8 C         143.9645  140.4439  158.7638 C.2     1  UNL1        0.3039
      9 N         143.1322  139.2037  158.6252 N.am    1  UNL1       -0.2903
     10 N         144.7832  140.9312  157.6052 N.am    1  UNL1       -0.2641
     11 C         145.6155  142.1713  157.7439 C.3     1  UNL1        0.0949
     12 C         146.4342  142.6585  156.5853 C.3     1  UNL1        0.0217
     13 C         146.4205  141.9056  155.2880 C.3     1  UNL1        0.0060
     14 C         145.5882  140.6655  155.1494 C.3     1  UNL1        0.0493
     15 C         144.7696  140.1783  156.3079 C.3     1  UNL1        0.0974
     16 H         143.1233  138.7096  157.7737 H       1  UNL1        0.1509
     17 C         145.5746  139.9126  153.8521 C.3     1  UNL1        0.1388
     18 O         144.5325  138.8622  153.6054 O.3     1  UNL1       -0.3819
     19 H         144.6659  138.1239  154.2202 H       1  UNL1        0.2104
     20 C         139.8574  137.2547  163.2595 C.3     1  UNL1        0.1007
     21 C         139.6971  138.1137  164.4786 C.ar    1  UNL1        0.0129
     22 C         138.4164  138.3653  165.2177 C.ar    1  UNL1        0.0176
     23 C         138.7172  139.2792  166.3685 C.ar    1  UNL1        0.0799
     24 N         140.1839  139.5924  166.3407 N.ar    1  UNL1       -0.3038
     25 C         140.7895  138.8721  165.1726 C.ar    1  UNL1        0.0772
     26 C         140.9163  140.4715  167.3105 C.ar    1  UNL1        0.0640
     27 C         140.3582  141.8155  167.6737 C.ar    1  UNL1        0.0175
     28 C         141.0906  142.6946  168.6436 C.ar    1  UNL1        0.0053
     29 C         142.3812  142.2297  169.2503 C.ar    1  UNL1        0.0715
     30 C         142.9394  140.8856  168.8872 C.ar    1  UNL1        0.0053
     31 C         142.2070  140.0065  167.9173 C.ar    1  UNL1        0.0175
     32 C         143.1136  143.1088  170.2202 C.3     1  UNL1        0.4186
     33 F         143.8460  143.9880  171.1901 F       1  UNL1       -0.1659
     34 F         144.3325  142.2455  170.0823 F       1  UNL1       -0.1659
     35 F         141.8947  143.9722  170.3581 F       1  UNL1       -0.1659
@<TRIPOS>BOND
     1     7     8    2
     2     8     9   am
     3     9     1    1
     4     1     2    1
     5     2     3    1
     6     3     4    1
     7     4    20    1
     8    20    21    1
     9    21    22   ar
    10    22    23   ar
    11    23    24   ar
    12    24    26    1
    13    26    27   ar
    14    27    28   ar
    15    28    29   ar
    16    29    32    1
    17    32    33    1
    18    32    34    1
    19    32    35    1
    20    29    30   ar
    21    30    31   ar
    22    24    25   ar
    23     4     5    1
    24     5     6    1
    25     8    10   am
    26    10    11    1
    27    11    12    1
    28    12    13    1
    29    13    14    1
    30    14    17    1
    31    17    18    1
    32    14    15    1
    33     6     1    1
    34    15    10    1
    35    25    21   ar
    36    31    26   ar
    37     9    16    1
    38    18    19    1
@<TRIPOS>MOLECULE
*****
 35 38 0 0 0
SMALL
GASTEIGER

@<TRIPOS>ATOM
      1 C         140.8656  138.3503  161.4868 C.3     1  UNL1        0.0758
      2 C         140.0938  138.7880  160.2774 C.3     1  UNL1        0.0370
      3 C         140.6907  138.6321  158.9101 C.3     1  UNL1        0.0741
      4 N         142.0592  138.0386  158.7523 N.3     1  UNL1       -0.2688
      5 C         142.8309  137.6010  159.9618 C.3     1  UNL1        0.0741
      6 C         142.2341  137.7568  161.3291 C.3     1  UNL1        0.0370
      7 O         142.1608  140.1691  163.4905 O.2     1  UNL1       -0.2526
      8 C         140.9164  139.4156  163.8560 C.2     1  UNL1        0.3039
      9 N         140.2687  138.5062  162.8542 N.am    1  UNL1       -0.2903
     10 N         140.3196  139.5714  165.2234 N.am    1  UNL1       -0.2641
     11 C         140.9672  140.4808  166.2251 C.3     1  UNL1        0.0949
     12 C         140.3704  140.6366  167.5924 C.3     1  UNL1        0.0217
     13 C         139.1259  139.8831  167.9579 C.3     1  UNL1        0.0060
     14 C         138.4783  138.9737  166.9561 C.3     1  UNL1        0.0493
     15 C         139.0751  138.8179  165.5888 C.3     1  UNL1        0.0974
     16 H         139.4520  138.0117  163.0941 H       1  UNL1        0.1509
     17 C         137.2339  138.2202  167.3216 C.3     1  UNL1        0.1388
     18 O         137.2344  136.7203  167.3089 O.3     1  UNL1       -0.3819
     19 H         137.3540  136.4047  166.3996 H       1  UNL1        0.2104
     20 C         142.6560  137.8827  157.3849 C.3     1  UNL1        0.1007
     21 C         142.4737  136.6002  156.6288 C.ar    1  UNL1        0.0129
     22 C         141.6304  136.4118  155.4028 C.ar    1  UNL1        0.0176
     23 C         141.7382  134.9760  154.9821 C.ar    1  UNL1        0.0799
     24 N         142.6482  134.2770  155.9483 N.ar    1  UNL1       -0.3038
     25 C         143.1028  135.2808  156.9660 C.ar    1  UNL1        0.0772
     26 C         143.0356  132.8286  155.9044 C.ar    1  UNL1        0.0640
     27 C         144.4751  132.4325  156.0486 C.ar    1  UNL1        0.0175
     28 C         144.8625  130.9841  156.0048 C.ar    1  UNL1        0.0053
     29 C         143.8104  129.9317  155.8167 C.ar    1  UNL1        0.0715
     30 C         142.3708  130.3277  155.6725 C.ar    1  UNL1        0.0053
     31 C         141.9834  131.7761  155.7163 C.ar    1  UNL1        0.0175
     32 C         144.1978  128.4833  155.7728 C.3     1  UNL1        0.4186
     33 F         144.5851  127.0348  155.7290 F       1  UNL1       -0.1659
     34 F         145.5608  128.8629  155.2748 F       1  UNL1       -0.1659
     35 F         142.8347  128.1036  156.2708 F       1  UNL1       -0.1659
@<TRIPOS>BOND
     1     7     8    2
     2     8     9   am
     3     9     1    1
     4     1     2    1
     5     2     3    1
     6     3     4    1
     7     4    20    1
     8    20    21    1
     9    21    22   ar
    10    22    23   ar
    11    23    24   ar
    12    24    26    1
    13    26    27   ar
    14    27    28   ar
    15    28    29   ar
    16    29    32    1
    17    32    33    1
    18    32    34    1
    19    32    35    1
    20    29    30   ar
    21    30    31   ar
    22    24    25   ar
    23     4     5    1
    24     5     6    1
    25     8    10   am
    26    10    11    1
    27    11    12    1
    28    12    13    1
    29    13    14    1
    30    14    17    1
    31    17    18    1
    32    14    15    1
    33     6     1    1
    34    15    10    1
    35    25    21   ar
    36    31    26   ar
    37     9    16    1
    38    18    19    1
@<TRIPOS>MOLECULE
*****
 35 38 0 0 0
SMALL
GASTEIGER

@<TRIPOS>ATOM
      1 C         144.3431  140.6936  157.8329 C.3     1  UNL1        0.0758
      2 C         143.3543  139.6846  157.3287 C.3     1  UNL1        0.0370
      3 C         142.1512  139.3363  158.1540 C.3     1  UNL1        0.0741
      4 N         141.9368  139.9970  159.4834 N.3     1  UNL1       -0.2688
      5 C         142.9255  141.0061  159.9876 C.3     1  UNL1        0.0741
      6 C         144.1287  141.3544  159.1623 C.3     1  UNL1        0.0370
      7 O         144.1682  142.8613  155.7664 O.2     1  UNL1       -0.2526
      8 C         145.4588  142.1258  155.9743 C.2     1  UNL1        0.3039
      9 N         145.5463  141.0420  157.0076 N.am    1  UNL1       -0.2903
     10 N         146.6620  142.4741  155.1490 N.am    1  UNL1       -0.2641
     11 C         146.5745  143.5580  154.1158 C.3     1  UNL1        0.0949
     12 C         147.7777  143.9063  153.2906 C.3     1  UNL1        0.0217
     13 C         149.0683  143.1707  153.4986 C.3     1  UNL1        0.0060
     14 C         149.1558  142.0869  154.5318 C.3     1  UNL1        0.0493
     15 C         147.9526  141.7386  155.3570 C.3     1  UNL1        0.0974
     16 H         146.3933  140.5592  157.1441 H       1  UNL1        0.1509
     17 C         150.4464  141.3513  154.7398 C.3     1  UNL1        0.1388
     18 O         151.7141  142.1151  154.9833 O.3     1  UNL1       -0.3819
     19 H         151.9430  142.6233  154.1894 H       1  UNL1        0.2104
     20 C         140.7336  139.6487  160.3087 C.3     1  UNL1        0.1007
     21 C         140.9075  139.1043  161.6956 C.ar    1  UNL1        0.0129
     22 C         141.3611  137.7189  162.0485 C.ar    1  UNL1        0.0176
     23 C         141.3922  137.6081  163.5441 C.ar    1  UNL1        0.0799
     24 N         140.9577  138.9252  164.1155 N.ar    1  UNL1       -0.3038
     25 C         140.6581  139.8499  162.9731 C.ar    1  UNL1        0.0772
     26 C         140.8430  139.2590  165.5734 C.ar    1  UNL1        0.0640
     27 C         142.0778  139.3617  166.4188 C.ar    1  UNL1        0.0175
     28 C         141.9630  139.6954  167.8766 C.ar    1  UNL1        0.0053
     29 C         140.6135  139.9265  168.4892 C.ar    1  UNL1        0.0715
     30 C         139.3787  139.8238  167.6439 C.ar    1  UNL1        0.0053
     31 C         139.4934  139.4900  166.1860 C.ar    1  UNL1        0.0175
     32 C         140.4988  140.2602  169.9470 C.3     1  UNL1        0.4186
     33 F         140.3841  140.5939  171.4050 F       1  UNL1       -0.1659
     34 F         139.5558  141.3790  169.6167 F       1  UNL1       -0.1659
     35 F         141.4418  139.1414  170.2774 F       1  UNL1       -0.1659
@<TRIPOS>BOND
     1     7     8    2
     2     8     9   am
     3     9     1    1
     4     1     2    1
     5     2     3    1
     6     3     4    1
     7     4    20    1
     8    20    21    1
     9    21    22   ar
    10    22    23   ar
    11    23    24   ar
    12    24    26    1
    13    26    27   ar
    14    27    28   ar
    15    28    29   ar
    16    29    32    1
    17    32    33    1
    18    32    34    1
    19    32    35    1
    20    29    30   ar
    21    30    31   ar
    22    24    25   ar
    23     4     5    1
    24     5     6    1
    25     8    10   am
    26    10    11    1
    27    11    12    1
    28    12    13    1
    29    13    14    1
    30    14    17    1
    31    17    18    1
    32    14    15    1
    33     6     1    1
    34    15    10    1
    35    25    21   ar
    36    31    26   ar
    37     9    16    1
    38    18    19    1
@<TRIPOS>MOLECULE
*****
 35 38 0 0 0
SMALL
GASTEIGER

@<TRIPOS>ATOM
      1 C         142.5269  138.5084  158.7807 C.3     1  UNL1        0.0758
      2 C         141.2745  138.6835  159.5874 C.3     1  UNL1        0.0370
      3 C         140.9014  140.0398  160.1082 C.3     1  UNL1        0.0741
      4 N         141.7806  141.2209  159.8222 N.3     1  UNL1       -0.2688
      5 C         143.0330  141.0458  159.0154 C.3     1  UNL1        0.0741
      6 C         143.4061  139.6895  158.4947 C.3     1  UNL1        0.0370
      7 O         141.5427  137.6107  156.0926 O.2     1  UNL1       -0.2526
      8 C         142.4080  136.7032  156.9159 C.2     1  UNL1        0.3039
      9 N         142.9001  137.1520  158.2599 N.am    1  UNL1       -0.2903
     10 N         142.7811  135.3469  156.3951 N.am    1  UNL1       -0.2641
     11 C         142.2890  134.8981  155.0511 C.3     1  UNL1        0.0949
     12 C         142.6622  133.5418  154.5304 C.3     1  UNL1        0.0217
     13 C         143.5275  132.6344  155.3536 C.3     1  UNL1        0.0060
     14 C         144.0196  133.0832  156.6976 C.3     1  UNL1        0.0493
     15 C         143.6464  134.4394  157.2183 C.3     1  UNL1        0.0974
     16 H         143.4680  136.5564  158.8002 H       1  UNL1        0.1509
     17 C         144.8849  132.1757  157.5209 C.3     1  UNL1        0.1388
     18 O         144.2903  130.9662  158.1792 O.3     1  UNL1       -0.3819
     19 H         143.6567  131.2462  158.8581 H       1  UNL1        0.2104
     20 C         141.4075  142.5773  160.3430 C.3     1  UNL1        0.1007
     21 C         141.8640  143.0094  161.7049 C.ar    1  UNL1        0.0129
     22 C         142.8257  144.1219  162.0005 C.ar    1  UNL1        0.0176
     23 C         142.9951  144.2050  163.4886 C.ar    1  UNL1        0.0799
     24 N         142.1380  143.1438  164.1127 N.ar    1  UNL1       -0.3038
     25 C         141.4390  142.4049  163.0102 C.ar    1  UNL1        0.0772
     26 C         142.0036  142.8697  165.5813 C.ar    1  UNL1        0.0640
     27 C         140.6577  142.9477  166.2387 C.ar    1  UNL1        0.0175
     28 C         140.5232  142.6736  167.7073 C.ar    1  UNL1        0.0053
     29 C         141.7348  142.3215  168.5184 C.ar    1  UNL1        0.0715
     30 C         143.0808  142.2435  167.8611 C.ar    1  UNL1        0.0053
     31 C         143.2152  142.5176  166.3925 C.ar    1  UNL1        0.0175
     32 C         141.6004  142.0474  169.9870 C.3     1  UNL1        0.4186
     33 F         141.4659  141.7732  171.4556 F       1  UNL1       -0.1659
     34 F         142.1083  143.4257  170.2908 F       1  UNL1       -0.1659
     35 F         141.0924  140.6690  169.6833 F       1  UNL1       -0.1659
@<TRIPOS>BOND
     1     7     8    2
     2     8     9   am
     3     9     1    1
     4     1     2    1
     5     2     3    1
     6     3     4    1
     7     4    20    1
     8    20    21    1
     9    21    22   ar
    10    22    23   ar
    11    23    24   ar
    12    24    26    1
    13    26    27   ar
    14    27    28   ar
    15    28    29   ar
    16    29    32    1
    17    32    33    1
    18    32    34    1
    19    32    35    1
    20    29    30   ar
    21    30    31   ar
    22    24    25   ar
    23     4     5    1
    24     5     6    1
    25     8    10   am
    26    10    11    1
    27    11    12    1
    28    12    13    1
    29    13    14    1
    30    14    17    1
    31    17    18    1
    32    14    15    1
    33     6     1    1
    34    15    10    1
    35    25    21   ar
    36    31    26   ar
    37     9    16    1
    38    18    19    1
@<TRIPOS>MOLECULE
*****
 35 38 0 0 0
SMALL
GASTEIGER

@<TRIPOS>ATOM
      1 C         143.2999  143.6569  157.7907 C.3     1  UNL1        0.0758
      2 C         143.4720  143.1191  159.1803 C.3     1  UNL1        0.0370
      3 C         142.6262  143.6493  160.2998 C.3     1  UNL1        0.0741
      4 N         141.6083  144.7174  160.0297 N.3     1  UNL1       -0.2688
      5 C         141.4362  145.2553  158.6401 C.3     1  UNL1        0.0741
      6 C         142.2820  144.7250  157.5206 C.3     1  UNL1        0.0370
      7 O         142.3226  141.3558  156.1324 O.2     1  UNL1       -0.2526
      8 C         143.6571  141.9762  155.8419 C.2     1  UNL1        0.3039
      9 N         144.1457  143.1267  156.6710 N.am    1  UNL1       -0.2903
     10 N         144.5029  141.4459  154.7223 N.am    1  UNL1       -0.2641
     11 C         144.0142  140.2954  153.8932 C.3     1  UNL1        0.0949
     12 C         144.8601  139.7652  152.7736 C.3     1  UNL1        0.0217
     13 C         146.1945  140.3855  152.4832 C.3     1  UNL1        0.0060
     14 C         146.6832  141.5361  153.3123 C.3     1  UNL1        0.0493
     15 C         145.8374  142.0662  154.4318 C.3     1  UNL1        0.0974
     16 H         145.0216  143.5338  156.4804 H       1  UNL1        0.1509
     17 C         148.0177  142.1564  153.0218 C.3     1  UNL1        0.1388
     18 O         149.2781  141.4194  153.3655 O.3     1  UNL1       -0.3819
     19 H         149.3473  141.3290  154.3288 H       1  UNL1        0.2104
     20 C         140.7625  145.2477  161.1494 C.3     1  UNL1        0.1007
     21 C         140.6635  144.4883  162.4391 C.ar    1  UNL1        0.0129
     22 C         141.2637  144.8974  163.7514 C.ar    1  UNL1        0.0176
     23 C         140.9182  143.8484  164.7664 C.ar    1  UNL1        0.0799
     24 N         140.1043  142.7908  164.0813 N.ar    1  UNL1       -0.3038
     25 C         139.9470  143.1863  162.6429 C.ar    1  UNL1        0.0772
     26 C         139.5460  141.5549  164.7220 C.ar    1  UNL1        0.0640
     27 C         139.7979  141.2844  166.1757 C.ar    1  UNL1        0.0175
     28 C         139.2395  140.0485  166.8164 C.ar    1  UNL1        0.0053
     29 C         138.4292  139.0829  166.0035 C.ar    1  UNL1        0.0715
     30 C         138.1773  139.3533  164.5497 C.ar    1  UNL1        0.0053
     31 C         138.7356  140.5892  163.9090 C.ar    1  UNL1        0.0175
     32 C         137.8709  137.8469  166.6442 C.3     1  UNL1        0.4186
     33 F         137.3125  136.6110  167.2851 F       1  UNL1       -0.1659
     34 F         138.4402  137.0142  165.5341 F       1  UNL1       -0.1659
     35 F         137.3015  138.6797  167.7544 F       1  UNL1       -0.1659
@<TRIPOS>BOND
     1     7     8    2
     2     8     9   am
     3     9     1    1
     4     1     2    1
     5     2     3    1
     6     3     4    1
     7     4    20    1
     8    20    21    1
     9    21    22   ar
    10    22    23   ar
    11    23    24   ar
    12    24    26    1
    13    26    27   ar
    14    27    28   ar
    15    28    29   ar
    16    29    32    1
    17    32    33    1
    18    32    34    1
    19    32    35    1
    20    29    30   ar
    21    30    31   ar
    22    24    25   ar
    23     4     5    1
    24     5     6    1
    25     8    10   am
    26    10    11    1
    27    11    12    1
    28    12    13    1
    29    13    14    1
    30    14    17    1
    31    17    18    1
    32    14    15    1
    33     6     1    1
    34    15    10    1
    35    25    21   ar
    36    31    26   ar
    37     9    16    1
    38    18    19    1
@<TRIPOS>MOLECULE
*****
 35 38 0 0 0
SMALL
GASTEIGER

@<TRIPOS>ATOM
      1 C         139.9622  140.0151  163.1938 C.3     1  UNL1        0.0758
      2 C         140.1856  141.2779  162.4157 C.3     1  UNL1        0.0370
      3 C         140.1627  141.2489  160.9162 C.3     1  UNL1        0.0741
      4 N         139.9163  139.9571  160.1948 N.3     1  UNL1       -0.2688
      5 C         139.6928  138.6943  160.9728 C.3     1  UNL1        0.0741
      6 C         139.7158  138.7233  162.4723 C.3     1  UNL1        0.0370
      7 O         142.4652  139.2704  164.6704 O.2     1  UNL1       -0.2526
      8 C         141.2366  139.6717  165.4317 C.2     1  UNL1        0.3039
      9 N         139.9851  140.0441  164.6934 N.am    1  UNL1       -0.2903
     10 N         141.2595  139.7007  166.9313 N.am    1  UNL1       -0.2641
     11 C         142.5110  139.3283  167.6695 C.3     1  UNL1        0.0949
     12 C         142.5339  139.3574  169.1691 C.3     1  UNL1        0.0217
     13 C         141.3053  139.7587  169.9303 C.3     1  UNL1        0.0060
     14 C         140.0539  140.1311  169.1920 C.3     1  UNL1        0.0493
     15 C         140.0310  140.1021  167.6925 C.3     1  UNL1        0.0974
     16 H         139.1788  140.3076  165.1930 H       1  UNL1        0.1509
     17 C         138.8253  140.5325  169.9533 C.3     1  UNL1        0.1388
     18 O         138.0229  139.4961  170.6826 O.3     1  UNL1       -0.3819
     19 H         137.6249  138.8857  170.0423 H       1  UNL1        0.2104
     20 C         139.8933  139.9281  158.6952 C.3     1  UNL1        0.1007
     21 C         140.9374  139.1565  157.9439 C.ar    1  UNL1        0.0129
     22 C         142.2407  139.6995  157.4374 C.ar    1  UNL1        0.0176
     23 C         142.9704  138.5851  156.7476 C.ar    1  UNL1        0.0799
     24 N         142.1180  137.3533  156.8279 N.ar    1  UNL1       -0.3038
     25 C         140.8616  137.7065  157.5672 C.ar    1  UNL1        0.0772
     26 C         142.4618  136.0052  156.2673 C.ar    1  UNL1        0.0640
     27 C         142.0327  135.6393  154.8774 C.ar    1  UNL1        0.0175
     28 C         142.3764  134.2912  154.3168 C.ar    1  UNL1        0.0053
     29 C         143.1492  133.3089  155.1460 C.ar    1  UNL1        0.0715
     30 C         143.5784  133.6747  156.5360 C.ar    1  UNL1        0.0053
     31 C         143.2346  135.0229  157.0966 C.ar    1  UNL1        0.0175
     32 C         143.4930  131.9608  154.5854 C.3     1  UNL1        0.4186
     33 F         143.8367  130.6126  154.0247 F       1  UNL1       -0.1659
     34 F         144.6514  131.8620  155.5332 F       1  UNL1       -0.1659
     35 F         142.3345  132.0595  153.6376 F       1  UNL1       -0.1659
@<TRIPOS>BOND
     1     7     8    2
     2     8     9   am
     3     9     1    1
     4     1     2    1
     5     2     3    1
     6     3     4    1
     7     4    20    1
     8    20    21    1
     9    21    22   ar
    10    22    23   ar
    11    23    24   ar
    12    24    26    1
    13    26    27   ar
    14    27    28   ar
    15    28    29   ar
    16    29    32    1
    17    32    33    1
    18    32    34    1
    19    32    35    1
    20    29    30   ar
    21    30    31   ar
    22    24    25   ar
    23     4     5    1
    24     5     6    1
    25     8    10   am
    26    10    11    1
    27    11    12    1
    28    12    13    1
    29    13    14    1
    30    14    17    1
    31    17    18    1
    32    14    15    1
    33     6     1    1
    34    15    10    1
    35    25    21   ar
    36    31    26   ar
    37     9    16    1
    38    18    19    1
