@<TRIPOS>MOLECULE
*****
 29 32 0 0 0
SMALL
GASTEIGER

@<TRIPOS>ATOM
      1 C         139.4706  140.4422  169.3835 C.2     1  UNL1        0.2529
      2 O         138.5964  139.9157  170.4829 O.2     1  UNL1       -0.2698
      3 N         139.2554  139.9865  167.9708 N.am    1  UNL1       -0.2759
      4 C         138.1659  139.0042  167.6573 C.3     1  UNL1        0.0954
      5 C         137.9507  138.5485  166.2445 C.3     1  UNL1        0.0410
      6 C         138.8249  139.0750  165.1451 C.3     1  UNL1        0.0722
      7 C         139.9143  140.0573  165.4586 C.3     1  UNL1        0.0410
      8 C         140.1296  140.5130  166.8715 C.3     1  UNL1        0.0954
      9 C         144.2391  142.5883  170.1162 C.3     1  UNL1        0.1548
     10 N         142.7519  142.4109  170.0338 N.ar    1  UNL1       -0.2380
     11 N         141.7213  143.4612  170.3249 N.ar    1  UNL1       -0.1667
     12 C         140.3666  142.8516  170.1168 C.ar    1  UNL1        0.1270
     13 C         140.5601  141.4245  169.6970 C.ar    1  UNL1        0.1024
     14 C         142.0343  141.1522  169.6457 C.ar    1  UNL1        0.1408
     15 CL        142.6779  139.8499  169.2719 Cl      1  UNL1       -0.0615
     16 N         138.6096  138.6193  163.7324 N.pl3   1  UNL1       -0.3367
     17 H         137.8231  138.0722  163.5061 H       1  UNL1        0.1465
     18 C         139.5927  138.9972  162.6644 C.2     1  UNL1        0.0322
     19 C         140.6347  138.0131  162.2219 C.3     1  UNL1        0.1278
     20 C         141.6178  138.3910  161.1539 C.2     1  UNL1        0.2513
     21 O         142.6598  137.4068  160.7115 O.2     1  UNL1       -0.2726
     22 N         141.5590  139.7530  160.5283 N.am    1  UNL1       -0.1789
     23 C         140.5170  140.7372  160.9708 C.ar    1  UNL1        0.0744
     24 C         140.4581  142.0992  160.3452 C.ar    1  UNL1        0.0189
     25 C         139.4162  143.0834  160.7876 C.ar    1  UNL1        0.0310
     26 C         138.4331  142.7055  161.8557 C.ar    1  UNL1        0.1403
     27 F         137.3911  143.6897  162.2981 F       1  UNL1       -0.2042
     28 C         138.4919  141.3434  162.4812 C.ar    1  UNL1        0.0318
     29 C         139.5339  140.3593  162.0388 C.ar    1  UNL1        0.0270
@<TRIPOS>BOND
     1     9    10    1
     2    10    11   ar
     3    11    12   ar
     4    12    13   ar
     5    13     1    1
     6     1     2    2
     7     1     3   am
     8     3     4    1
     9     4     5    1
    10     5     6    1
    11     6    16    1
    12    16    18    1
    13    18    19    1
    14    19    20    1
    15    20    21    2
    16    20    22    1
    17    22    23    2
    18    23    24   ar
    19    24    25   ar
    20    25    26   ar
    21    26    27    1
    22    26    28   ar
    23    28    29   ar
    24     6     7    1
    25     7     8    1
    26    13    14   ar
    27    14    15    1
    28    14    10   ar
    29     8     3    1
    30    29    18    2
    31    29    23   ar
    32    16    17    1
@<TRIPOS>MOLECULE
*****
 29 32 0 0 0
SMALL
GASTEIGER

@<TRIPOS>ATOM
      1 C         139.8591  139.9064  168.7675 C.2     1  UNL1        0.2529
      2 O         138.6956  139.7478  169.7010 O.2     1  UNL1       -0.2698
      3 N         139.6623  139.7439  167.2894 N.am    1  UNL1       -0.2759
      4 C         138.3020  139.4230  166.7447 C.3     1  UNL1        0.0954
      5 C         138.1052  139.2605  165.2666 C.3     1  UNL1        0.0410
      6 C         139.2687  139.4191  164.3331 C.3     1  UNL1        0.0722
      7 C         140.6289  139.7401  164.8779 C.3     1  UNL1        0.0410
      8 C         140.8257  139.9025  166.3561 C.3     1  UNL1        0.0954
      9 C         144.2444  142.5279  170.1005 C.3     1  UNL1        0.1548
     10 N         143.2351  141.4324  169.9250 N.ar    1  UNL1       -0.2380
     11 N         143.3900  140.0102  170.3761 N.ar    1  UNL1       -0.1667
     12 C         142.1442  139.2654  169.9974 C.ar    1  UNL1        0.1270
     13 C         141.2193  140.2273  169.3123 C.ar    1  UNL1        0.1024
     14 C         141.8935  141.5665  169.2675 C.ar    1  UNL1        0.1408
     15 CL        141.3258  142.8199  168.6701 Cl      1  UNL1       -0.0615
     16 N         139.0718  139.2567  162.8550 N.pl3   1  UNL1       -0.3367
     17 H         139.1163  138.3614  162.4480 H       1  UNL1        0.1465
     18 C         138.8073  140.4584  161.9971 C.2     1  UNL1        0.0322
     19 C         138.4145  141.7602  162.6303 C.3     1  UNL1        0.1278
     20 C         138.1500  142.9618  161.7724 C.2     1  UNL1        0.2513
     21 O         137.7572  144.2637  162.4057 O.2     1  UNL1       -0.2726
     22 N         138.2781  142.8617  160.2813 N.am    1  UNL1       -0.1789
     23 C         138.6708  141.5598  159.6480 C.ar    1  UNL1        0.0744
     24 C         138.7990  141.4596  158.1569 C.ar    1  UNL1        0.0189
     25 C         139.1917  140.1578  157.5237 C.ar    1  UNL1        0.0310
     26 C         139.4563  138.9562  158.3816 C.ar    1  UNL1        0.1403
     27 F         139.8490  137.6543  157.7483 F       1  UNL1       -0.2042
     28 C         139.3281  139.0563  159.8727 C.ar    1  UNL1        0.0318
     29 C         138.9354  140.3581  160.5059 C.ar    1  UNL1        0.0270
@<TRIPOS>BOND
     1     9    10    1
     2    10    11   ar
     3    11    12   ar
     4    12    13   ar
     5    13     1    1
     6     1     2    2
     7     1     3   am
     8     3     4    1
     9     4     5    1
    10     5     6    1
    11     6    16    1
    12    16    18    1
    13    18    19    1
    14    19    20    1
    15    20    21    2
    16    20    22    1
    17    22    23    2
    18    23    24   ar
    19    24    25   ar
    20    25    26   ar
    21    26    27    1
    22    26    28   ar
    23    28    29   ar
    24     6     7    1
    25     7     8    1
    26    13    14   ar
    27    14    15    1
    28    14    10   ar
    29     8     3    1
    30    29    18    2
    31    29    23   ar
    32    16    17    1
@<TRIPOS>MOLECULE
*****
 29 32 0 0 0
SMALL
GASTEIGER

@<TRIPOS>ATOM
      1 C         140.0351  145.1395  161.0195 C.2     1  UNL1        0.2529
      2 O         139.2732  146.3941  161.3285 O.2     1  UNL1       -0.2698
      3 N         140.4845  144.2413  162.1336 N.am    1  UNL1       -0.2759
      4 C         140.1719  144.5976  163.5568 C.3     1  UNL1        0.0954
      5 C         140.6213  143.6994  164.6709 C.3     1  UNL1        0.0410
      6 C         141.3832  142.4448  164.3619 C.3     1  UNL1        0.0722
      7 C         141.6958  142.0884  162.9387 C.3     1  UNL1        0.0410
      8 C         141.2464  142.9867  161.8246 C.3     1  UNL1        0.0954
      9 C         139.9480  142.7737  156.2998 C.3     1  UNL1        0.1548
     10 N         140.3076  143.6957  157.4269 N.ar    1  UNL1       -0.2380
     11 N         141.3497  144.7738  157.3858 N.ar    1  UNL1       -0.1667
     12 C         141.3745  145.4459  158.7266 C.ar    1  UNL1        0.1270
     13 C         140.3477  144.7831  159.5964 C.ar    1  UNL1        0.1024
     14 C         139.6884  143.7014  158.7931 C.ar    1  UNL1        0.1408
     15 CL        138.6007  142.7861  159.2720 Cl      1  UNL1       -0.0615
     16 N         141.8326  141.5466  165.4760 N.pl3   1  UNL1       -0.3367
     17 H         142.7935  141.4067  165.6384 H       1  UNL1        0.1465
     18 C         140.8180  140.8616  166.3427 C.2     1  UNL1        0.0322
     19 C         139.9667  139.7639  165.7767 C.3     1  UNL1        0.1278
     20 C         138.9521  139.0789  166.6434 C.2     1  UNL1        0.2513
     21 O         138.1008  137.9812  166.0773 O.2     1  UNL1       -0.2726
     22 N         138.7887  139.4915  168.0762 N.am    1  UNL1       -0.1789
     23 C         139.6400  140.5892  168.6424 C.ar    1  UNL1        0.0744
     24 C         139.4766  141.0019  170.0752 C.ar    1  UNL1        0.0189
     25 C         140.3279  142.0995  170.6413 C.ar    1  UNL1        0.0310
     26 C         141.3425  142.7845  169.7745 C.ar    1  UNL1        0.1403
     27 F         142.1938  143.8822  170.3406 F       1  UNL1       -0.2042
     28 C         141.5059  142.3719  168.3417 C.ar    1  UNL1        0.0318
     29 C         140.6546  141.2743  167.7756 C.ar    1  UNL1        0.0270
@<TRIPOS>BOND
     1     9    10    1
     2    10    11   ar
     3    11    12   ar
     4    12    13   ar
     5    13     1    1
     6     1     2    2
     7     1     3   am
     8     3     4    1
     9     4     5    1
    10     5     6    1
    11     6    16    1
    12    16    18    1
    13    18    19    1
    14    19    20    1
    15    20    21    2
    16    20    22    1
    17    22    23    2
    18    23    24   ar
    19    24    25   ar
    20    25    26   ar
    21    26    27    1
    22    26    28   ar
    23    28    29   ar
    24     6     7    1
    25     7     8    1
    26    13    14   ar
    27    14    15    1
    28    14    10   ar
    29     8     3    1
    30    29    18    2
    31    29    23   ar
    32    16    17    1
@<TRIPOS>MOLECULE
*****
 29 32 0 0 0
SMALL
GASTEIGER

@<TRIPOS>ATOM
      1 C         139.5512  140.5569  169.1834 C.2     1  UNL1        0.2529
      2 O         138.6501  139.9573  170.2220 O.2     1  UNL1       -0.2698
      3 N         139.4066  140.1583  167.7446 N.am    1  UNL1       -0.2759
      4 C         138.3610  139.1601  167.3443 C.3     1  UNL1        0.0954
      5 C         138.2164  138.7616  165.9055 C.3     1  UNL1        0.0410
      6 C         139.1175  139.3612  164.8669 C.3     1  UNL1        0.0722
      7 C         140.1631  140.3594  165.2672 C.3     1  UNL1        0.0410
      8 C         140.3077  140.7579  166.7061 C.3     1  UNL1        0.0954
      9 C         144.2159  142.7879  170.2530 C.3     1  UNL1        0.1548
     10 N         142.7410  142.5806  170.0753 N.ar    1  UNL1       -0.2380
     11 N         141.6708  143.6018  170.3242 N.ar    1  UNL1       -0.1667
     12 C         140.3456  142.9681  170.0203 C.ar    1  UNL1        0.1270
     13 C         140.5968  141.5551  169.5837 C.ar    1  UNL1        0.1024
     14 C         142.0772  141.3157  169.6177 C.ar    1  UNL1        0.1408
     15 CL        142.7719  140.0360  169.2574 Cl      1  UNL1       -0.0615
     16 N         138.9729  138.9626  163.4281 N.pl3   1  UNL1       -0.3367
     17 H         138.6163  138.0746  163.1967 H       1  UNL1        0.1465
     18 C         139.3716  139.9170  162.3417 C.2     1  UNL1        0.0322
     19 C         138.4454  141.0269  161.9413 C.3     1  UNL1        0.1278
     20 C         138.8441  141.9813  160.8549 C.2     1  UNL1        0.2513
     21 O         137.9178  143.0911  160.4545 O.2     1  UNL1       -0.2726
     22 N         140.1690  141.8258  160.1691 N.am    1  UNL1       -0.1789
     23 C         141.0953  140.7160  160.5695 C.ar    1  UNL1        0.0744
     24 C         142.4202  140.5606  159.8836 C.ar    1  UNL1        0.0189
     25 C         143.3464  139.4507  160.2841 C.ar    1  UNL1        0.0310
     26 C         142.9477  138.4963  161.3705 C.ar    1  UNL1        0.1403
     27 F         143.8739  137.3865  161.7709 F       1  UNL1       -0.2042
     28 C         141.6228  138.6517  162.0563 C.ar    1  UNL1        0.0318
     29 C         140.6966  139.7616  161.6559 C.ar    1  UNL1        0.0270
@<TRIPOS>BOND
     1     9    10    1
     2    10    11   ar
     3    11    12   ar
     4    12    13   ar
     5    13     1    1
     6     1     2    2
     7     1     3   am
     8     3     4    1
     9     4     5    1
    10     5     6    1
    11     6    16    1
    12    16    18    1
    13    18    19    1
    14    19    20    1
    15    20    21    2
    16    20    22    1
    17    22    23    2
    18    23    24   ar
    19    24    25   ar
    20    25    26   ar
    21    26    27    1
    22    26    28   ar
    23    28    29   ar
    24     6     7    1
    25     7     8    1
    26    13    14   ar
    27    14    15    1
    28    14    10   ar
    29     8     3    1
    30    29    18    2
    31    29    23   ar
    32    16    17    1
@<TRIPOS>MOLECULE
*****
 29 32 0 0 0
SMALL
GASTEIGER

@<TRIPOS>ATOM
      1 C         139.7871  139.9821  167.9986 C.2     1  UNL1        0.2529
      2 O         138.5223  139.3992  168.5561 O.2     1  UNL1       -0.2698
      3 N         139.9718  140.0914  166.5140 N.am    1  UNL1       -0.2759
      4 C         138.8918  139.6177  165.5870 C.3     1  UNL1        0.0954
      5 C         139.0766  139.7270  164.1025 C.3     1  UNL1        0.0410
      6 C         140.3413  140.3099  163.5449 C.3     1  UNL1        0.0722
      7 C         141.4212  140.7835  164.4720 C.3     1  UNL1        0.0410
      8 C         141.2365  140.6742  165.9566 C.3     1  UNL1        0.0954
      9 C         142.9805  143.1152  170.8033 C.3     1  UNL1        0.1548
     10 N         142.3349  141.8959  170.2149 N.ar    1  UNL1       -0.2380
     11 N         142.7229  140.4732  170.4896 N.ar    1  UNL1       -0.1667
     12 C         141.8157  139.5831  169.6929 C.ar    1  UNL1        0.1270
     13 C         140.8670  140.4557  168.9256 C.ar    1  UNL1        0.1024
     14 C         141.1879  141.8850  169.2483 C.ar    1  UNL1        0.1408
     15 CL        140.4851  143.0917  168.7005 Cl      1  UNL1       -0.0615
     16 N         140.5260  140.4191  162.0604 N.pl3   1  UNL1       -0.3367
     17 H         140.1982  139.7031  161.4695 H       1  UNL1        0.1465
     18 C         141.2103  141.6193  161.4760 C.2     1  UNL1        0.0322
     19 C         142.5059  141.4584  160.7376 C.3     1  UNL1        0.1278
     20 C         143.1902  142.6586  160.1533 C.2     1  UNL1        0.2513
     21 O         144.4859  142.4977  159.4148 O.2     1  UNL1       -0.2726
     22 N         142.5788  144.0196  160.3073 N.am    1  UNL1       -0.1789
     23 C         141.2830  144.1805  161.0458 C.ar    1  UNL1        0.0744
     24 C         140.6716  145.5415  161.1998 C.ar    1  UNL1        0.0189
     25 C         139.3759  145.7023  161.9383 C.ar    1  UNL1        0.0310
     26 C         138.6917  144.5022  162.5226 C.ar    1  UNL1        0.1403
     27 F         137.3959  144.6631  163.2610 F       1  UNL1       -0.2042
     28 C         139.3031  143.1412  162.3685 C.ar    1  UNL1        0.0318
     29 C         140.5988  142.9803  161.6301 C.ar    1  UNL1        0.0270
@<TRIPOS>BOND
     1     9    10    1
     2    10    11   ar
     3    11    12   ar
     4    12    13   ar
     5    13     1    1
     6     1     2    2
     7     1     3   am
     8     3     4    1
     9     4     5    1
    10     5     6    1
    11     6    16    1
    12    16    18    1
    13    18    19    1
    14    19    20    1
    15    20    21    2
    16    20    22    1
    17    22    23    2
    18    23    24   ar
    19    24    25   ar
    20    25    26   ar
    21    26    27    1
    22    26    28   ar
    23    28    29   ar
    24     6     7    1
    25     7     8    1
    26    13    14   ar
    27    14    15    1
    28    14    10   ar
    29     8     3    1
    30    29    18    2
    31    29    23   ar
    32    16    17    1
@<TRIPOS>MOLECULE
*****
 29 32 0 0 0
SMALL
GASTEIGER

@<TRIPOS>ATOM
      1 C         139.7410  140.0967  168.0409 C.2     1  UNL1        0.2529
      2 O         138.6111  139.4290  168.7673 O.2     1  UNL1       -0.2698
      3 N         139.6472  140.3318  166.5624 N.am    1  UNL1       -0.2759
      4 C         138.4237  139.8991  165.8103 C.3     1  UNL1        0.0954
      5 C         138.3300  140.1341  164.3318 C.3     1  UNL1        0.0410
      6 C         139.4598  140.8018  163.6054 C.3     1  UNL1        0.0722
      7 C         140.6834  141.2345  164.3575 C.3     1  UNL1        0.0410
      8 C         140.7771  140.9994  165.8361 C.3     1  UNL1        0.0954
      9 C         143.2747  143.0764  170.5933 C.3     1  UNL1        0.1548
     10 N         142.5888  141.8991  169.9663 N.ar    1  UNL1       -0.2380
     11 N         143.1060  140.4914  169.9347 N.ar    1  UNL1       -0.1667
     12 C         142.1021  139.6448  169.2096 C.ar    1  UNL1        0.1270
     13 C         140.9645  140.5294  168.7931 C.ar    1  UNL1        0.1024
     14 C         141.2653  141.9225  169.2607 C.ar    1  UNL1        0.1408
     15 CL        140.3954  143.1276  169.0583 Cl      1  UNL1       -0.0615
     16 N         139.3661  141.0369  162.1269 N.pl3   1  UNL1       -0.3367
     17 H         138.8782  140.3993  161.5571 H       1  UNL1        0.1465
     18 C         140.0158  142.2432  161.5166 C.2     1  UNL1        0.0322
     19 C         139.3743  143.5919  161.6562 C.3     1  UNL1        0.1278
     20 C         140.0240  144.7983  161.0458 C.2     1  UNL1        0.2513
     21 O         139.3824  146.1470  161.1854 O.2     1  UNL1       -0.2726
     22 N         141.3152  144.6560  160.2959 N.am    1  UNL1       -0.1789
     23 C         141.9568  143.3073  160.1563 C.ar    1  UNL1        0.0744
     24 C         143.2481  143.1651  159.4064 C.ar    1  UNL1        0.0189
     25 C         143.8896  141.8164  159.2669 C.ar    1  UNL1        0.0310
     26 C         143.2399  140.6100  159.8772 C.ar    1  UNL1        0.1403
     27 F         143.8815  139.2613  159.7376 F       1  UNL1       -0.2042
     28 C         141.9487  140.7523  160.6271 C.ar    1  UNL1        0.0318
     29 C         141.3071  142.1009  160.7667 C.ar    1  UNL1        0.0270
@<TRIPOS>BOND
     1     9    10    1
     2    10    11   ar
     3    11    12   ar
     4    12    13   ar
     5    13     1    1
     6     1     2    2
     7     1     3   am
     8     3     4    1
     9     4     5    1
    10     5     6    1
    11     6    16    1
    12    16    18    1
    13    18    19    1
    14    19    20    1
    15    20    21    2
    16    20    22    1
    17    22    23    2
    18    23    24   ar
    19    24    25   ar
    20    25    26   ar
    21    26    27    1
    22    26    28   ar
    23    28    29   ar
    24     6     7    1
    25     7     8    1
    26    13    14   ar
    27    14    15    1
    28    14    10   ar
    29     8     3    1
    30    29    18    2
    31    29    23   ar
    32    16    17    1
@<TRIPOS>MOLECULE
*****
 29 32 0 0 0
SMALL
GASTEIGER

@<TRIPOS>ATOM
      1 C         142.6985  139.7252  168.5516 C.2     1  UNL1        0.2529
      2 O         143.1219  138.4789  169.2710 O.2     1  UNL1       -0.2698
      3 N         142.7512  139.7811  167.0536 N.am    1  UNL1       -0.2759
      4 C         143.2273  138.5906  166.2749 C.3     1  UNL1        0.0954
      5 C         143.2800  138.6465  164.7769 C.3     1  UNL1        0.0410
      6 C         142.8566  139.8928  164.0575 C.3     1  UNL1        0.0722
      7 C         142.3805  141.0832  164.8361 C.3     1  UNL1        0.0410
      8 C         142.3278  141.0273  166.3342 C.3     1  UNL1        0.0954
      9 C         139.5596  143.2306  170.9475 C.3     1  UNL1        0.1548
     10 N         140.7796  142.5269  170.4315 N.ar    1  UNL1       -0.2380
     11 N         142.2001  142.9681  170.6254 N.ar    1  UNL1       -0.1667
     12 C         143.0919  141.9723  169.9448 C.ar    1  UNL1        0.1270
     13 C         142.2224  140.9156  169.3302 C.ar    1  UNL1        0.1024
     14 C         140.7935  141.2584  169.6310 C.ar    1  UNL1        0.1408
     15 CL        139.5896  140.4709  169.2060 Cl      1  UNL1       -0.0615
     16 N         142.9093  139.9487  162.5595 N.pl3   1  UNL1       -0.3367
     17 H         143.5194  139.3542  162.0659 H       1  UNL1        0.1465
     18 C         142.0325  140.9103  161.8135 C.2     1  UNL1        0.0322
     19 C         142.5940  142.2120  161.3234 C.3     1  UNL1        0.1278
     20 C         141.7171  143.1736  160.5774 C.2     1  UNL1        0.2513
     21 O         142.2787  144.4754  160.0873 O.2     1  UNL1       -0.2726
     22 N         140.2788  142.8335  160.3215 N.am    1  UNL1       -0.1789
     23 C         139.7172  141.5317  160.8117 C.ar    1  UNL1        0.0744
     24 C         138.2789  141.1916  160.5558 C.ar    1  UNL1        0.0189
     25 C         137.7174  139.8899  161.0459 C.ar    1  UNL1        0.0310
     26 C         138.5943  138.9283  161.7919 C.ar    1  UNL1        0.1403
     27 F         138.0327  137.6266  162.2820 F       1  UNL1       -0.2042
     28 C         140.0326  139.2684  162.0478 C.ar    1  UNL1        0.0318
     29 C         140.5941  140.5701  161.5576 C.ar    1  UNL1        0.0270
@<TRIPOS>BOND
     1     9    10    1
     2    10    11   ar
     3    11    12   ar
     4    12    13   ar
     5    13     1    1
     6     1     2    2
     7     1     3   am
     8     3     4    1
     9     4     5    1
    10     5     6    1
    11     6    16    1
    12    16    18    1
    13    18    19    1
    14    19    20    1
    15    20    21    2
    16    20    22    1
    17    22    23    2
    18    23    24   ar
    19    24    25   ar
    20    25    26   ar
    21    26    27    1
    22    26    28   ar
    23    28    29   ar
    24     6     7    1
    25     7     8    1
    26    13    14   ar
    27    14    15    1
    28    14    10   ar
    29     8     3    1
    30    29    18    2
    31    29    23   ar
    32    16    17    1
@<TRIPOS>MOLECULE
*****
 29 32 0 0 0
SMALL
GASTEIGER

@<TRIPOS>ATOM
      1 C         139.0195  143.3563  161.9094 C.2     1  UNL1        0.2529
      2 O         137.9746  144.4196  162.0764 O.2     1  UNL1       -0.2698
      3 N         139.3320  142.4271  163.0447 N.am    1  UNL1       -0.2759
      4 C         138.5998  142.5612  164.3469 C.3     1  UNL1        0.0954
      5 C         138.9124  141.6320  165.4822 C.3     1  UNL1        0.0410
      6 C         139.9572  140.5687  165.3152 C.3     1  UNL1        0.0722
      7 C         140.6894  140.4346  164.0130 C.3     1  UNL1        0.0410
      8 C         140.3768  141.3639  162.8777 C.3     1  UNL1        0.0954
      9 C         142.7704  143.6457  158.2044 C.3     1  UNL1        0.1548
     10 N         141.4759  143.3553  158.9041 N.ar    1  UNL1       -0.2380
     11 N         140.2812  142.6768  158.3022 N.ar    1  UNL1       -0.1667
     12 C         139.2155  142.5946  159.3547 C.ar    1  UNL1        0.1270
     13 C         139.7517  143.2223  160.6072 C.ar    1  UNL1        0.1024
     14 C         141.1486  143.6925  160.3287 C.ar    1  UNL1        0.1408
     15 CL        142.0586  144.3792  161.3035 Cl      1  UNL1       -0.0615
     16 N         140.2698  139.6395  166.4505 N.pl3   1  UNL1       -0.3367
     17 H         140.6600  138.7541  166.2687 H       1  UNL1        0.1465
     18 C         139.9877  140.0592  167.8627 C.2     1  UNL1        0.0322
     19 C         138.7630  139.5528  168.5652 C.3     1  UNL1        0.1278
     20 C         138.4809  139.9725  169.9774 C.2     1  UNL1        0.2513
     21 O         137.2561  139.4660  170.6799 O.2     1  UNL1       -0.2726
     22 N         139.4235  140.8987  170.6870 N.am    1  UNL1       -0.1789
     23 C         140.6483  141.4052  169.9845 C.ar    1  UNL1        0.0744
     24 C         141.5910  142.3313  170.6941 C.ar    1  UNL1        0.0189
     25 C         142.8156  142.8377  169.9916 C.ar    1  UNL1        0.0310
     26 C         143.0977  142.4180  168.5794 C.ar    1  UNL1        0.1403
     27 F         144.3225  142.9245  167.8769 F       1  UNL1       -0.2042
     28 C         142.1551  141.4918  167.8698 C.ar    1  UNL1        0.0318
     29 C         140.9304  140.9854  168.5723 C.ar    1  UNL1        0.0270
@<TRIPOS>BOND
     1     9    10    1
     2    10    11   ar
     3    11    12   ar
     4    12    13   ar
     5    13     1    1
     6     1     2    2
     7     1     3   am
     8     3     4    1
     9     4     5    1
    10     5     6    1
    11     6    16    1
    12    16    18    1
    13    18    19    1
    14    19    20    1
    15    20    21    2
    16    20    22    1
    17    22    23    2
    18    23    24   ar
    19    24    25   ar
    20    25    26   ar
    21    26    27    1
    22    26    28   ar
    23    28    29   ar
    24     6     7    1
    25     7     8    1
    26    13    14   ar
    27    14    15    1
    28    14    10   ar
    29     8     3    1
    30    29    18    2
    31    29    23   ar
    32    16    17    1
@<TRIPOS>MOLECULE
*****
 29 32 0 0 0
SMALL
GASTEIGER

@<TRIPOS>ATOM
      1 C         140.1648  145.1938  160.7892 C.2     1  UNL1        0.2529
      2 O         139.3371  146.3958  161.1359 O.2     1  UNL1       -0.2698
      3 N         140.6911  144.3063  161.8779 N.am    1  UNL1       -0.2759
      4 C         140.3898  144.6207  163.3132 C.3     1  UNL1        0.0954
      5 C         140.9161  143.7332  164.4019 C.3     1  UNL1        0.0410
      6 C         141.7438  142.5311  164.0552 C.3     1  UNL1        0.0722
      7 C         142.0451  142.2167  162.6199 C.3     1  UNL1        0.0410
      8 C         141.5188  143.1043  161.5312 C.3     1  UNL1        0.0954
      9 C         140.0348  142.9729  156.0005 C.3     1  UNL1        0.1548
     10 N         140.4064  143.8585  157.1527 N.ar    1  UNL1       -0.2380
     11 N         141.4535  144.9325  157.1372 N.ar    1  UNL1       -0.1667
     12 C         141.4905  145.5635  158.4976 C.ar    1  UNL1        0.1270
     13 C         140.4662  144.8794  159.3538 C.ar    1  UNL1        0.1024
     14 C         139.7963  143.8257  158.5226 C.ar    1  UNL1        0.1408
     15 CL        138.7073  142.9014  158.9808 Cl      1  UNL1       -0.0615
     16 N         142.2701  141.6436  165.1439 N.pl3   1  UNL1       -0.3367
     17 H         143.1547  141.2218  165.0506 H       1  UNL1        0.1465
     18 C         141.4485  141.3988  166.3748 C.2     1  UNL1        0.0322
     19 C         141.7392  142.1600  167.6342 C.3     1  UNL1        0.1278
     20 C         140.9177  141.9151  168.8651 C.2     1  UNL1        0.2513
     21 O         141.2084  142.6764  170.1245 O.2     1  UNL1       -0.2726
     22 N         139.8055  140.9091  168.8367 N.am    1  UNL1       -0.1789
     23 C         139.5148  140.1478  167.5773 C.ar    1  UNL1        0.0744
     24 C         138.4026  139.1417  167.5488 C.ar    1  UNL1        0.0189
     25 C         138.1120  138.3805  166.2895 C.ar    1  UNL1        0.0310
     26 C         138.9335  138.6253  165.0586 C.ar    1  UNL1        0.1403
     27 F         138.6428  137.8640  163.7992 F       1  UNL1       -0.2042
     28 C         140.0457  139.6314  165.0870 C.ar    1  UNL1        0.0318
     29 C         140.3363  140.3926  166.3463 C.ar    1  UNL1        0.0270
@<TRIPOS>BOND
     1     9    10    1
     2    10    11   ar
     3    11    12   ar
     4    12    13   ar
     5    13     1    1
     6     1     2    2
     7     1     3   am
     8     3     4    1
     9     4     5    1
    10     5     6    1
    11     6    16    1
    12    16    18    1
    13    18    19    1
    14    19    20    1
    15    20    21    2
    16    20    22    1
    17    22    23    2
    18    23    24   ar
    19    24    25   ar
    20    25    26   ar
    21    26    27    1
    22    26    28   ar
    23    28    29   ar
    24     6     7    1
    25     7     8    1
    26    13    14   ar
    27    14    15    1
    28    14    10   ar
    29     8     3    1
    30    29    18    2
    31    29    23   ar
    32    16    17    1
