@<TRIPOS>MOLECULE
*****
 36 39 0 0 0
SMALL
GASTEIGER

@<TRIPOS>ATOM
      1 N         140.1052  138.5758  162.8095 N.am    1  UNL1       -0.2531
      2 C         140.5778  139.3482  164.0053 C.2     1  UNL1        0.3135
      3 O         141.8283  140.1721  163.9197 O.2     1  UNL1       -0.2518
      4 N         139.7998  139.2968  165.2868 N.am    1  UNL1       -0.2282
      5 C         138.5493  138.4729  165.3724 C.3     1  UNL1        0.1015
      6 C         137.7713  138.4215  166.6539 C.3     1  UNL1        0.0268
      7 C         138.2439  139.1940  167.8497 C.3     1  UNL1        0.0310
      8 C         139.4945  140.0178  167.7641 C.ar    1  UNL1        0.0098
      9 C         139.9670  140.7903  168.9599 C.ar    1  UNL1        0.0013
     10 C         141.2176  141.6141  168.8742 C.ar    1  UNL1        0.0643
     11 CA        141.9956  141.6656  167.5928 C.ar    1  UNL1        0.1260
     12 N         141.5230  140.8931  166.3969 N.ar    1  UNL1       -0.2274
     13 C         140.2724  140.0692  166.4826 C.ar    1  UNL1        0.1345
     14 H         139.2844  138.0350  162.8657 H       1  UNL1        0.1578
     15 C         141.3883  139.7627  159.2465 C.ar    1  UNL1        0.1524
     16 C         140.6103  139.7114  160.5280 C.ar    1  UNL1        0.0721
     17 C         140.8831  138.6272  161.5281 C.ar    1  UNL1        0.1384
     18 N         141.9340  137.5944  161.2466 N.ar    1  UNL1       -0.2281
     19 C         142.7119  137.6458  159.9652 C.ar    1  UNL1        0.1136
     20 C         142.4391  138.7300  158.9651 C.ar    1  UNL1        0.1215
     21 C         143.2170  138.7814  157.6837 C.1     1  UNL1        0.1051
     22 N         143.9949  138.8328  156.4022 N.1     1  UNL1       -0.1907
     23 O         141.1154  140.8469  158.2464 O.3     1  UNL1       -0.4746
     24 C         142.0255  142.0364  158.1627 C.3     1  UNL1        0.2054
     25 C         143.7959  144.8180  163.1755 C.3     1  UNL1        0.0896
     26 N         143.3533  144.1226  161.9223 N.3     1  UNL1       -0.2715
     27 C         141.9947  144.4002  161.3504 C.3     1  UNL1        0.0723
     28 C         141.5521  143.7048  160.0972 C.3     1  UNL1        0.0211
     29 C         142.4681  142.7318  159.4159 C.3     1  UNL1        0.0465
     30 C         143.8267  142.4542  159.9878 C.3     1  UNL1        0.0211
     31 C         144.2693  143.1496  161.2410 C.3     1  UNL1        0.0723
     32 C         141.6902  142.3866  170.0701 C.3     1  UNL1        0.3425
     33 F         141.6008  143.8839  170.0790 F       1  UNL1       -0.1932
     34 F         142.2521  141.6617  171.2570 F       1  UNL1       -0.1932
     35 C         143.2461  142.4895  167.5071 C.2     1  UNL1        0.2530
     36 O         143.8385  142.8166  166.1684 O.2     1  UNL1       -0.2815
@<TRIPOS>BOND
     1    25    26    1
     2    26    27    1
     3    27    28    1
     4    28    29    1
     5    29    24    1
     6    24    23    1
     7    23    15    1
     8    15    16   ar
     9    16    17   ar
    10    17     1    1
    11     1     2   am
    12     2     3    2
    13     2     4   am
    14     4     5    1
    15     5     6    1
    16     6     7    1
    17     7     8    1
    18     8     9   ar
    19     9    10   ar
    20    10    32    1
    21    32    33    1
    22    32    34    1
    23    10    11   ar
    24    11    35    1
    25    35    36    2
    26    11    12   ar
    27    12    13   ar
    28    17    18   ar
    29    18    19   ar
    30    19    20   ar
    31    20    21    1
    32    21    22    3
    33    29    30    1
    34    30    31    1
    35    31    26    1
    36    20    15   ar
    37    13     4    1
    38    13     8   ar
    39     1    14    1
@<TRIPOS>MOLECULE
*****
 36 39 0 0 0
SMALL
GASTEIGER

@<TRIPOS>ATOM
      1 N         137.8202  140.0651  158.7493 N.am    1  UNL1       -0.2531
      2 C         138.2653  141.3987  158.2262 C.2     1  UNL1        0.3135
      3 O         139.3903  142.1298  158.8967 O.2     1  UNL1       -0.2518
      4 N         137.5851  142.0011  157.0326 N.am    1  UNL1       -0.2282
      5 C         136.4601  141.2699  156.3621 C.3     1  UNL1        0.1015
      6 C         135.7800  141.8724  155.1686 C.3     1  UNL1        0.0268
      7 C         136.2251  143.2059  154.6455 C.3     1  UNL1        0.0310
      8 C         137.3501  143.9370  155.3160 C.ar    1  UNL1        0.0098
      9 C         137.7952  145.2706  154.7929 C.ar    1  UNL1        0.0013
     10 C         138.9203  146.0017  155.4634 C.ar    1  UNL1        0.0643
     11 CA        139.6004  145.3993  156.6570 C.ar    1  UNL1        0.1260
     12 N         139.1554  144.0657  157.1801 N.ar    1  UNL1       -0.2274
     13 C         138.0302  143.3346  156.5095 C.ar    1  UNL1        0.1345
     14 H         137.0818  139.5853  158.3092 H       1  UNL1        0.1578
     15 C         138.6402  139.1108  162.5132 C.ar    1  UNL1        0.1524
     16 C         137.9601  139.7132  161.3196 C.ar    1  UNL1        0.0721
     17 C         138.5003  139.4627  159.9428 C.ar    1  UNL1        0.1384
     18 N         139.7205  138.6097  159.7596 N.ar    1  UNL1       -0.2281
     19 C         140.4006  138.0073  160.9532 C.ar    1  UNL1        0.1136
     20 C         139.8604  138.2578  162.3299 C.ar    1  UNL1        0.1215
     21 C         140.5405  137.6554  163.5235 C.1     1  UNL1        0.1051
     22 N         141.2205  137.0529  164.7171 N.1     1  UNL1       -0.1907
     23 O         138.1001  139.3613  163.8899 O.3     1  UNL1       -0.4746
     24 C         138.6191  140.5110  164.7015 C.3     1  UNL1        0.2054
     25 C         139.6004  145.8239  162.0918 C.3     1  UNL1        0.0896
     26 N         139.3551  144.4957  162.7442 N.3     1  UNL1       -0.2715
     27 C         137.9562  144.0735  163.0831 C.3     1  UNL1        0.0723
     28 C         137.7109  142.7453  163.7355 C.3     1  UNL1        0.0211
     29 C         138.8644  141.8392  164.0491 C.3     1  UNL1        0.0465
     30 C         140.2633  142.2614  163.7102 C.3     1  UNL1        0.0211
     31 C         140.5086  143.5897  163.0578 C.3     1  UNL1        0.0723
     32 C         139.3653  147.3352  154.9403 C.3     1  UNL1        0.3425
     33 F         140.5184  147.4192  153.9847 F       1  UNL1       -0.1932
     34 F         138.6572  148.5849  155.3729 F       1  UNL1       -0.1932
     35 C         140.7255  146.1304  157.3275 C.2     1  UNL1        0.2530
     36 O         141.2646  145.6379  158.6378 O.2     1  UNL1       -0.2815
@<TRIPOS>BOND
     1    25    26    1
     2    26    27    1
     3    27    28    1
     4    28    29    1
     5    29    24    1
     6    24    23    1
     7    23    15    1
     8    15    16   ar
     9    16    17   ar
    10    17     1    1
    11     1     2   am
    12     2     3    2
    13     2     4   am
    14     4     5    1
    15     5     6    1
    16     6     7    1
    17     7     8    1
    18     8     9   ar
    19     9    10   ar
    20    10    32    1
    21    32    33    1
    22    32    34    1
    23    10    11   ar
    24    11    35    1
    25    35    36    2
    26    11    12   ar
    27    12    13   ar
    28    17    18   ar
    29    18    19   ar
    30    19    20   ar
    31    20    21    1
    32    21    22    3
    33    29    30    1
    34    30    31    1
    35    31    26    1
    36    20    15   ar
    37    13     4    1
    38    13     8   ar
    39     1    14    1
@<TRIPOS>MOLECULE
*****
 36 39 0 0 0
SMALL
GASTEIGER

@<TRIPOS>ATOM
      1 N         138.5885  139.1994  162.6968 N.am    1  UNL1       -0.2531
      2 C         139.4668  139.8978  163.6921 C.2     1  UNL1        0.3135
      3 O         140.6096  140.7462  163.2187 O.2     1  UNL1       -0.2518
      4 N         139.2023  139.7477  165.1610 N.am    1  UNL1       -0.2282
      5 C         138.0596  138.8993  165.6345 C.3     1  UNL1        0.1015
      6 C         137.7951  138.7492  167.1033 C.3     1  UNL1        0.0268
      7 C         138.6735  139.4476  168.0987 C.3     1  UNL1        0.0310
      8 C         139.8163  140.2960  167.6253 C.ar    1  UNL1        0.0098
      9 C         140.6946  140.9944  168.6206 C.ar    1  UNL1        0.0013
     10 C         141.8374  141.8428  168.1472 C.ar    1  UNL1        0.0643
     11 CA        142.1019  141.9929  166.6783 C.ar    1  UNL1        0.1260
     12 N         141.2235  141.2946  165.6829 N.ar    1  UNL1       -0.2274
     13 C         140.0807  140.4461  166.1564 C.ar    1  UNL1        0.1345
     14 H         137.8384  138.6426  163.0075 H       1  UNL1        0.1578
     15 C         140.2562  138.7595  159.1225 C.ar    1  UNL1        0.1524
     16 C         139.9918  138.6094  160.5914 C.ar    1  UNL1        0.0721
     17 C         138.8529  139.3495  161.2279 C.ar    1  UNL1        0.1384
     18 N         137.9784  140.2397  160.3955 N.ar    1  UNL1       -0.2281
     19 C         138.2428  140.3898  158.9267 C.ar    1  UNL1        0.1136
     20 C         139.3817  139.6496  158.2902 C.ar    1  UNL1        0.1215
     21 C         139.6462  139.7997  156.8213 C.1     1  UNL1        0.1051
     22 N         139.9106  139.9498  155.3524 N.1     1  UNL1       -0.1907
     23 O         141.3951  138.0194  158.4860 O.3     1  UNL1       -0.4746
     24 C         142.7893  138.5647  158.5792 C.3     1  UNL1        0.2054
     25 C         144.9496  140.3893  163.8711 C.3     1  UNL1        0.0896
     26 N         144.4095  139.9332  162.5481 N.3     1  UNL1       -0.2715
     27 C         144.1832  140.9268  161.4475 C.3     1  UNL1        0.0723
     28 C         143.6431  140.4707  160.1246 C.3     1  UNL1        0.0211
     29 C         143.3294  139.0208  159.9022 C.3     1  UNL1        0.0465
     30 C         143.5558  138.0272  161.0027 C.3     1  UNL1        0.0211
     31 C         144.0958  138.4833  162.3257 C.3     1  UNL1        0.0723
     32 C         142.7157  142.5412  169.1426 C.3     1  UNL1        0.3425
     33 F         144.1517  142.1341  169.2912 F       1  UNL1       -0.1932
     34 F         142.1580  143.6467  169.9893 F       1  UNL1       -0.1932
     35 C         143.2446  142.8413  166.2048 C.2     1  UNL1        0.2530
     36 O         143.2553  143.3696  164.8009 O.2     1  UNL1       -0.2815
@<TRIPOS>BOND
     1    25    26    1
     2    26    27    1
     3    27    28    1
     4    28    29    1
     5    29    24    1
     6    24    23    1
     7    23    15    1
     8    15    16   ar
     9    16    17   ar
    10    17     1    1
    11     1     2   am
    12     2     3    2
    13     2     4   am
    14     4     5    1
    15     5     6    1
    16     6     7    1
    17     7     8    1
    18     8     9   ar
    19     9    10   ar
    20    10    32    1
    21    32    33    1
    22    32    34    1
    23    10    11   ar
    24    11    35    1
    25    35    36    2
    26    11    12   ar
    27    12    13   ar
    28    17    18   ar
    29    18    19   ar
    30    19    20   ar
    31    20    21    1
    32    21    22    3
    33    29    30    1
    34    30    31    1
    35    31    26    1
    36    20    15   ar
    37    13     4    1
    38    13     8   ar
    39     1    14    1
@<TRIPOS>MOLECULE
*****
 36 39 0 0 0
SMALL
GASTEIGER

@<TRIPOS>ATOM
      1 N         143.4555  141.9422  164.9912 N.am    1  UNL1       -0.2531
      2 C         142.5349  142.0674  163.8136 C.2     1  UNL1        0.3135
      3 O         141.0495  142.0073  164.0130 O.2     1  UNL1       -0.2518
      4 N         143.0998  142.2526  162.4364 N.am    1  UNL1       -0.2282
      5 C         144.5853  142.3127  162.2369 C.3     1  UNL1        0.1015
      6 C         145.1501  142.4980  160.8597 C.3     1  UNL1        0.0268
      7 C         144.2295  142.6231  159.6821 C.3     1  UNL1        0.0310
      8 C         142.7441  142.5630  159.8816 C.ar    1  UNL1        0.0098
      9 C         141.8235  142.6882  158.7039 C.ar    1  UNL1        0.0013
     10 C         140.3381  142.6281  158.9034 C.ar    1  UNL1        0.0643
     11 CA        139.7732  142.4428  160.2806 C.ar    1  UNL1        0.1260
     12 N         140.6937  142.3177  161.4582 N.ar    1  UNL1       -0.2274
     13 C         142.1793  142.3778  161.2587 C.ar    1  UNL1        0.1345
     14 H         144.4304  141.9817  164.8603 H       1  UNL1        0.1578
     15 C         141.2694  140.5351  167.9898 C.ar    1  UNL1        0.1524
     16 C         141.8343  140.7203  166.6126 C.ar    1  UNL1        0.0721
     17 C         142.8906  141.7570  166.3684 C.ar    1  UNL1        0.1384
     18 N         143.3820  142.6084  167.5014 N.ar    1  UNL1       -0.2281
     19 C         142.8172  142.4232  168.8785 C.ar    1  UNL1        0.1136
     20 C         141.7609  141.3865  169.1227 C.ar    1  UNL1        0.1215
     21 C         141.1960  141.2013  170.4999 C.1     1  UNL1        0.1051
     22 N         140.6311  141.0160  171.8771 N.1     1  UNL1       -0.1907
     23 O         140.2132  139.4985  168.2340 O.3     1  UNL1       -0.4746
     24 C         138.8659  139.6341  167.5888 C.3     1  UNL1        0.2054
     25 C         138.2493  138.6682  161.6992 C.3     1  UNL1        0.0896
     26 N         138.4034  138.9097  163.1716 N.3     1  UNL1       -0.2715
     27 C         138.0413  140.2433  163.7549 C.3     1  UNL1        0.0723
     28 C         138.1955  140.4848  165.2273 C.3     1  UNL1        0.0211
     29 C         138.7117  139.3926  166.1164 C.3     1  UNL1        0.0465
     30 C         139.0738  138.0590  165.5331 C.3     1  UNL1        0.0211
     31 C         138.9197  137.8175  164.0607 C.3     1  UNL1        0.0723
     32 C         139.4175  142.7532  157.7257 C.3     1  UNL1        0.3425
     33 F         139.1183  144.1048  157.1480 F       1  UNL1       -0.1932
     34 F         138.7962  141.5268  157.1258 F       1  UNL1       -0.1932
     35 C         138.2877  142.3827  160.4801 C.2     1  UNL1        0.2530
     36 O         137.6503  143.1464  161.6028 O.2     1  UNL1       -0.2815
@<TRIPOS>BOND
     1    25    26    1
     2    26    27    1
     3    27    28    1
     4    28    29    1
     5    29    24    1
     6    24    23    1
     7    23    15    1
     8    15    16   ar
     9    16    17   ar
    10    17     1    1
    11     1     2   am
    12     2     3    2
    13     2     4   am
    14     4     5    1
    15     5     6    1
    16     6     7    1
    17     7     8    1
    18     8     9   ar
    19     9    10   ar
    20    10    32    1
    21    32    33    1
    22    32    34    1
    23    10    11   ar
    24    11    35    1
    25    35    36    2
    26    11    12   ar
    27    12    13   ar
    28    17    18   ar
    29    18    19   ar
    30    19    20   ar
    31    20    21    1
    32    21    22    3
    33    29    30    1
    34    30    31    1
    35    31    26    1
    36    20    15   ar
    37    13     4    1
    38    13     8   ar
    39     1    14    1
@<TRIPOS>MOLECULE
*****
 36 39 0 0 0
SMALL
GASTEIGER

@<TRIPOS>ATOM
      1 N         140.5826  145.0764  160.5214 N.am    1  UNL1       -0.2531
      2 C         140.2782  143.7696  161.1919 C.2     1  UNL1        0.3135
      3 O         140.4485  142.4831  160.4397 O.2     1  UNL1       -0.2518
      4 N         139.8033  143.7493  162.6147 N.am    1  UNL1       -0.2282
      5 C         139.6330  145.0358  163.3669 C.3     1  UNL1        0.1015
      6 C         139.1582  145.0155  164.7896 C.3     1  UNL1        0.0268
      7 C         138.8537  143.7087  165.4601 C.3     1  UNL1        0.0310
      8 C         139.0240  142.4222  164.7079 C.ar    1  UNL1        0.0098
      9 C         138.7196  141.1154  165.3784 C.ar    1  UNL1        0.0013
     10 C         138.8899  139.8289  164.6262 C.ar    1  UNL1        0.0643
     11 CA        139.3648  139.8492  163.2034 C.ar    1  UNL1        0.1260
     12 N         139.6692  141.1560  162.5329 N.ar    1  UNL1       -0.2274
     13 C         139.4989  142.4425  163.2852 C.ar    1  UNL1        0.1345
     14 H         140.4708  145.9208  161.0151 H       1  UNL1        0.1578
     15 C         140.7018  145.7803  156.6175 C.ar    1  UNL1        0.1524
     16 C         140.2270  145.7600  158.0403 C.ar    1  UNL1        0.0721
     17 C         141.0574  145.0967  159.0987 C.ar    1  UNL1        0.1384
     18 N         142.3628  144.4537  158.7344 N.ar    1  UNL1       -0.2281
     19 C         142.8376  144.4740  157.3117 C.ar    1  UNL1        0.1136
     20 C         142.0071  145.1373  156.2533 C.ar    1  UNL1        0.1215
     21 C         142.4819  145.1576  154.8306 C.1     1  UNL1        0.1051
     22 N         142.9568  145.1779  153.4078 N.1     1  UNL1       -0.1907
     23 O         139.8714  146.4436  155.5591 O.3     1  UNL1       -0.4746
     24 C         138.8941  147.5174  155.9359 C.3     1  UNL1        0.2054
     25 C         139.3180  152.9643  153.4557 C.3     1  UNL1        0.0896
     26 N         139.2120  151.6026  154.0757 N.3     1  UNL1       -0.2715
     27 C         139.7661  150.4070  153.3591 C.3     1  UNL1        0.0723
     28 C         139.6601  149.0453  153.9792 C.3     1  UNL1        0.0211
     29 C         139.0001  148.8791  155.3158 C.3     1  UNL1        0.0465
     30 C         138.4461  150.0747  156.0324 C.3     1  UNL1        0.0211
     31 C         138.5520  151.4364  155.4124 C.3     1  UNL1        0.0723
     32 C         138.5855  138.5221  165.2966 C.3     1  UNL1        0.3425
     33 F         139.3263  137.2818  164.8935 F       1  UNL1       -0.1932
     34 F         137.5401  138.4557  166.3704 F       1  UNL1       -0.1932
     35 C         139.5351  138.5627  162.4512 C.2     1  UNL1        0.2530
     36 O         138.3556  137.9256  161.7781 O.2     1  UNL1       -0.2815
@<TRIPOS>BOND
     1    25    26    1
     2    26    27    1
     3    27    28    1
     4    28    29    1
     5    29    24    1
     6    24    23    1
     7    23    15    1
     8    15    16   ar
     9    16    17   ar
    10    17     1    1
    11     1     2   am
    12     2     3    2
    13     2     4   am
    14     4     5    1
    15     5     6    1
    16     6     7    1
    17     7     8    1
    18     8     9   ar
    19     9    10   ar
    20    10    32    1
    21    32    33    1
    22    32    34    1
    23    10    11   ar
    24    11    35    1
    25    35    36    2
    26    11    12   ar
    27    12    13   ar
    28    17    18   ar
    29    18    19   ar
    30    19    20   ar
    31    20    21    1
    32    21    22    3
    33    29    30    1
    34    30    31    1
    35    31    26    1
    36    20    15   ar
    37    13     4    1
    38    13     8   ar
    39     1    14    1
@<TRIPOS>MOLECULE
*****
 36 39 0 0 0
SMALL
GASTEIGER

@<TRIPOS>ATOM
      1 N         137.8818  140.0082  158.8324 N.am    1  UNL1       -0.2531
      2 C         138.3387  141.3373  158.3080 C.2     1  UNL1        0.3135
      3 O         139.4883  142.0461  158.9608 O.2     1  UNL1       -0.2518
      4 N         137.6461  141.9575  157.1309 N.am    1  UNL1       -0.2282
      5 C         136.4965  141.2487  156.4781 C.3     1  UNL1        0.1015
      6 C         135.8039  141.8689  155.3010 C.3     1  UNL1        0.0268
      7 C         136.2609  143.1979  154.7767 C.3     1  UNL1        0.0310
      8 C         137.4104  143.9067  155.4295 C.ar    1  UNL1        0.0098
      9 C         137.8673  145.2358  154.9052 C.ar    1  UNL1        0.0013
     10 C         139.0168  145.9446  155.5579 C.ar    1  UNL1        0.0643
     11 CA        139.7095  145.3244  156.7351 C.ar    1  UNL1        0.1260
     12 N         139.2526  143.9953  157.2594 N.ar    1  UNL1       -0.2274
     13 C         138.1030  143.2865  156.6066 C.ar    1  UNL1        0.1345
     14 H         137.1273  139.5430  158.4039 H       1  UNL1        0.1578
     15 C         140.5795  138.0659  161.0003 C.ar    1  UNL1        0.1524
     16 C         139.8869  138.6861  159.8231 C.ar    1  UNL1        0.0721
     17 C         138.5744  139.3880  160.0094 C.ar    1  UNL1        0.1384
     18 N         137.9545  139.4696  161.3730 N.ar    1  UNL1       -0.2281
     19 C         138.6471  138.8494  162.5500 C.ar    1  UNL1        0.1136
     20 C         139.9596  138.1475  162.3637 C.ar    1  UNL1        0.1215
     21 C         140.6522  137.5273  163.5408 C.1     1  UNL1        0.1051
     22 N         141.3448  136.9071  164.7180 N.1     1  UNL1       -0.1907
     23 O         141.8920  137.3640  160.8139 O.3     1  UNL1       -0.4746
     24 C         143.1049  138.1406  160.3947 C.3     1  UNL1        0.2054
     25 C         145.4668  142.2388  164.0861 C.3     1  UNL1        0.0896
     26 N         144.8763  141.2143  163.1632 N.3     1  UNL1       -0.2715
     27 C         144.6277  139.8185  163.6529 C.3     1  UNL1        0.0723
     28 C         144.0372  138.7939  162.7301 C.3     1  UNL1        0.0211
     29 C         143.6954  139.1652  161.3176 C.3     1  UNL1        0.0465
     30 C         143.9440  140.5610  160.8279 C.3     1  UNL1        0.0211
     31 C         144.5345  141.5855  161.7507 C.3     1  UNL1        0.0723
     32 C         139.4737  147.2736  155.0336 C.3     1  UNL1        0.3425
     33 F         139.0836  148.5350  155.7454 F       1  UNL1       -0.1932
     34 F         140.3208  147.3412  153.7975 F       1  UNL1       -0.1932
     35 C         140.8590  146.0332  157.3879 C.2     1  UNL1        0.2530
     36 O         142.2500  145.8548  156.8555 O.2     1  UNL1       -0.2815
@<TRIPOS>BOND
     1    25    26    1
     2    26    27    1
     3    27    28    1
     4    28    29    1
     5    29    24    1
     6    24    23    1
     7    23    15    1
     8    15    16   ar
     9    16    17   ar
    10    17     1    1
    11     1     2   am
    12     2     3    2
    13     2     4   am
    14     4     5    1
    15     5     6    1
    16     6     7    1
    17     7     8    1
    18     8     9   ar
    19     9    10   ar
    20    10    32    1
    21    32    33    1
    22    32    34    1
    23    10    11   ar
    24    11    35    1
    25    35    36    2
    26    11    12   ar
    27    12    13   ar
    28    17    18   ar
    29    18    19   ar
    30    19    20   ar
    31    20    21    1
    32    21    22    3
    33    29    30    1
    34    30    31    1
    35    31    26    1
    36    20    15   ar
    37    13     4    1
    38    13     8   ar
    39     1    14    1
@<TRIPOS>MOLECULE
*****
 36 39 0 0 0
SMALL
GASTEIGER

@<TRIPOS>ATOM
      1 N         141.3103  145.1832  159.8161 N.am    1  UNL1       -0.2531
      2 C         140.3066  144.4615  158.9665 C.2     1  UNL1        0.3135
      3 O         139.6810  143.1910  159.4607 O.2     1  UNL1       -0.2518
      4 N         139.9285  145.0104  157.6227 N.am    1  UNL1       -0.2282
      5 C         140.5541  146.2810  157.1285 C.3     1  UNL1        0.1015
      6 C         140.1760  146.8298  155.7847 C.3     1  UNL1        0.0268
      7 C         139.1724  146.1082  154.9352 C.3     1  UNL1        0.0310
      8 C         138.5467  144.8376  155.4293 C.ar    1  UNL1        0.0098
      9 C         137.5430  144.1159  154.5798 C.ar    1  UNL1        0.0013
     10 C         136.9174  142.8454  155.0740 C.ar    1  UNL1        0.0643
     11 CA        137.2955  142.2965  156.4178 C.ar    1  UNL1        0.1260
     12 N         138.2992  143.0181  157.2674 N.ar    1  UNL1       -0.2274
     13 C         138.9248  144.2888  156.7731 C.ar    1  UNL1        0.1345
     14 H         141.7209  146.0171  159.4917 H       1  UNL1        0.1578
     15 C         141.1146  144.2033  163.6569 C.ar    1  UNL1        0.1524
     16 C         140.7364  144.7522  162.3131 C.ar    1  UNL1        0.0721
     17 C         141.6884  144.6343  161.1598 C.ar    1  UNL1        0.1384
     18 N         143.0185  143.9675  161.3505 N.ar    1  UNL1       -0.2281
     19 C         143.3966  143.4186  162.6942 C.ar    1  UNL1        0.1136
     20 C         142.4446  143.5365  163.8474 C.ar    1  UNL1        0.1215
     21 C         142.8227  142.9877  165.1912 C.1     1  UNL1        0.1051
     22 N         143.2008  142.4388  166.5350 N.1     1  UNL1       -0.1907
     23 O         140.1626  144.3212  164.8101 O.3     1  UNL1       -0.4746
     24 C         138.7835  143.7405  164.7065 C.3     1  UNL1        0.2054
     25 C         137.9517  138.4482  162.0049 C.3     1  UNL1        0.0896
     26 N         138.1597  139.7712  162.6803 N.3     1  UNL1       -0.2715
     27 C         137.6331  141.0262  162.0497 C.3     1  UNL1        0.0723
     28 C         137.8411  142.3493  162.7251 C.3     1  UNL1        0.0211
     29 C         138.5756  142.4174  164.0311 C.3     1  UNL1        0.0465
     30 C         139.1021  141.1625  164.6618 C.3     1  UNL1        0.0211
     31 C         138.8942  139.8394  163.9864 C.3     1  UNL1        0.0723
     32 C         135.9137  142.1237  154.2244 C.3     1  UNL1        0.3425
     33 F         136.3017  141.6282  152.8628 F       1  UNL1       -0.1932
     34 F         134.5221  141.8976  154.7365 F       1  UNL1       -0.1932
     35 C         136.6699  141.0259  156.9120 C.2     1  UNL1        0.2530
     36 O         137.2727  140.2963  158.0758 O.2     1  UNL1       -0.2815
@<TRIPOS>BOND
     1    25    26    1
     2    26    27    1
     3    27    28    1
     4    28    29    1
     5    29    24    1
     6    24    23    1
     7    23    15    1
     8    15    16   ar
     9    16    17   ar
    10    17     1    1
    11     1     2   am
    12     2     3    2
    13     2     4   am
    14     4     5    1
    15     5     6    1
    16     6     7    1
    17     7     8    1
    18     8     9   ar
    19     9    10   ar
    20    10    32    1
    21    32    33    1
    22    32    34    1
    23    10    11   ar
    24    11    35    1
    25    35    36    2
    26    11    12   ar
    27    12    13   ar
    28    17    18   ar
    29    18    19   ar
    30    19    20   ar
    31    20    21    1
    32    21    22    3
    33    29    30    1
    34    30    31    1
    35    31    26    1
    36    20    15   ar
    37    13     4    1
    38    13     8   ar
    39     1    14    1
@<TRIPOS>MOLECULE
*****
 36 39 0 0 0
SMALL
GASTEIGER

@<TRIPOS>ATOM
      1 N         140.6576  138.5814  158.6689 N.am    1  UNL1       -0.2531
      2 C         141.3339  138.6506  160.0060 C.2     1  UNL1        0.3135
      3 O         142.8006  138.9533  160.0898 O.2     1  UNL1       -0.2518
      4 N         140.5434  138.4170  161.2592 N.am    1  UNL1       -0.2282
      5 C         139.0767  138.1143  161.1754 C.3     1  UNL1        0.1015
      6 C         138.2862  137.8807  162.4286 C.3     1  UNL1        0.0268
      7 C         138.9625  137.9499  163.7657 C.3     1  UNL1        0.0310
      8 C         140.4292  138.2526  163.8496 C.ar    1  UNL1        0.0098
      9 C         141.1055  138.3218  165.1867 C.ar    1  UNL1        0.0013
     10 C         142.5722  138.6246  165.2706 C.ar    1  UNL1        0.0643
     11 CA        143.3627  138.8581  164.0173 C.ar    1  UNL1        0.1260
     12 N         142.6864  138.7889  162.6802 N.ar    1  UNL1       -0.2274
     13 C         141.2196  138.4862  162.5963 C.ar    1  UNL1        0.1345
     14 H         139.6949  138.3827  158.6138 H       1  UNL1        0.1578
     15 C         142.7216  137.8824  155.3521 C.ar    1  UNL1        0.1524
     16 C         141.9312  137.6488  156.6054 C.ar    1  UNL1        0.0721
     17 C         141.4480  138.8150  157.4156 C.ar    1  UNL1        0.1384
     18 N         141.7553  140.2148  156.9726 N.ar    1  UNL1       -0.2281
     19 C         142.5457  140.4483  155.7194 C.ar    1  UNL1        0.1136
     20 C         143.0289  139.2821  154.9091 C.ar    1  UNL1        0.1215
     21 C         143.8193  139.5157  153.6559 C.1     1  UNL1        0.1051
     22 N         144.6098  139.7492  152.4026 N.1     1  UNL1       -0.1907
     23 O         143.2048  136.7162  154.5418 O.3     1  UNL1       -0.4746
     24 C         142.4985  135.3960  154.6322 C.3     1  UNL1        0.2054
     25 C         144.8576  130.9488  157.8967 C.3     1  UNL1        0.0896
     26 N         144.2678  132.0606  157.0806 N.3     1  UNL1       -0.2715
     27 C         143.7747  131.7902  155.6901 C.3     1  UNL1        0.0723
     28 C         143.1849  132.9020  154.8740 C.3     1  UNL1        0.0211
     29 C         143.0883  134.2842  155.4484 C.3     1  UNL1        0.0465
     30 C         143.5814  134.5547  156.8389 C.3     1  UNL1        0.0211
     31 C         144.1712  133.4429  157.6550 C.3     1  UNL1        0.0723
     32 C         143.2485  138.6937  166.6077 C.3     1  UNL1        0.3425
     33 F         143.0490  139.8917  167.4879 F       1  UNL1       -0.1932
     34 F         144.1243  137.5648  167.0645 F       1  UNL1       -0.1932
     35 C         144.8294  139.1609  164.1012 C.2     1  UNL1        0.2530
     36 O         145.3113  140.5762  163.9794 O.2     1  UNL1       -0.2815
@<TRIPOS>BOND
     1    25    26    1
     2    26    27    1
     3    27    28    1
     4    28    29    1
     5    29    24    1
     6    24    23    1
     7    23    15    1
     8    15    16   ar
     9    16    17   ar
    10    17     1    1
    11     1     2   am
    12     2     3    2
    13     2     4   am
    14     4     5    1
    15     5     6    1
    16     6     7    1
    17     7     8    1
    18     8     9   ar
    19     9    10   ar
    20    10    32    1
    21    32    33    1
    22    32    34    1
    23    10    11   ar
    24    11    35    1
    25    35    36    2
    26    11    12   ar
    27    12    13   ar
    28    17    18   ar
    29    18    19   ar
    30    19    20   ar
    31    20    21    1
    32    21    22    3
    33    29    30    1
    34    30    31    1
    35    31    26    1
    36    20    15   ar
    37    13     4    1
    38    13     8   ar
    39     1    14    1
@<TRIPOS>MOLECULE
*****
 36 39 0 0 0
SMALL
GASTEIGER

@<TRIPOS>ATOM
      1 N         137.5776  140.5400  159.9913 N.am    1  UNL1       -0.2531
      2 C         138.2848  141.6414  159.2587 C.2     1  UNL1        0.3135
      3 O         139.2548  142.5241  159.9866 O.2     1  UNL1       -0.2518
      4 N         138.0221  141.8601  157.7981 N.am    1  UNL1       -0.2282
      5 C         137.0521  140.9773  157.0702 C.3     1  UNL1        0.1015
      6 C         136.7894  141.1960  155.6097 C.3     1  UNL1        0.0268
      7 C         137.4967  142.2974  154.8771 C.3     1  UNL1        0.0310
      8 C         138.4666  143.1802  155.6051 C.ar    1  UNL1        0.0098
      9 C         139.1739  144.2816  154.8725 C.ar    1  UNL1        0.0013
     10 C         140.1439  145.1643  155.6004 C.ar    1  UNL1        0.0643
     11 CA        140.4066  144.9457  157.0610 C.ar    1  UNL1        0.1260
     12 N         139.6994  143.8442  157.7936 N.ar    1  UNL1       -0.2274
     13 C         138.7294  142.9615  157.0656 C.ar    1  UNL1        0.1345
     14 H         136.9410  139.9606  159.5135 H       1  UNL1        0.1578
     15 C         138.7905  138.8510  163.3716 C.ar    1  UNL1        0.1524
     16 C         138.5278  139.0697  161.9110 C.ar    1  UNL1        0.0721
     17 C         137.8403  140.3213  161.4518 C.ar    1  UNL1        0.1384
     18 N         137.4154  141.3542  162.4532 N.ar    1  UNL1       -0.2281
     19 C         137.6781  141.1355  163.9137 C.ar    1  UNL1        0.1136
     20 C         138.3657  139.8839  164.3729 C.ar    1  UNL1        0.1215
     21 C         138.6284  139.6652  165.8334 C.1     1  UNL1        0.1051
     22 N         138.8911  139.4465  167.2940 N.1     1  UNL1       -0.1907
     23 O         139.4781  137.5995  163.8308 O.3     1  UNL1       -0.4746
     24 C         140.8169  137.2285  163.2651 C.3     1  UNL1        0.2054
     25 C         145.4891  140.9320  163.9389 C.3     1  UNL1        0.0896
     26 N         144.3211  140.0061  163.7705 N.3     1  UNL1       -0.2715
     27 C         143.4991  139.6114  164.9614 C.3     1  UNL1        0.0723
     28 C         142.3310  138.6855  164.7930 C.3     1  UNL1        0.0211
     29 C         141.9849  138.1544  163.4335 C.3     1  UNL1        0.0465
     30 C         142.8069  138.5491  162.2426 C.3     1  UNL1        0.0211
     31 C         143.9750  139.4750  162.4110 C.3     1  UNL1        0.0723
     32 C         140.8511  146.2657  154.8678 C.3     1  UNL1        0.3425
     33 F         140.3845  147.6838  155.0137 F       1  UNL1       -0.1932
     34 F         142.0250  145.9490  153.9893 F       1  UNL1       -0.1932
     35 C         141.3766  145.8284  157.7889 C.2     1  UNL1        0.2530
     36 O         141.8903  145.4249  159.1393 O.2     1  UNL1       -0.2815
@<TRIPOS>BOND
     1    25    26    1
     2    26    27    1
     3    27    28    1
     4    28    29    1
     5    29    24    1
     6    24    23    1
     7    23    15    1
     8    15    16   ar
     9    16    17   ar
    10    17     1    1
    11     1     2   am
    12     2     3    2
    13     2     4   am
    14     4     5    1
    15     5     6    1
    16     6     7    1
    17     7     8    1
    18     8     9   ar
    19     9    10   ar
    20    10    32    1
    21    32    33    1
    22    32    34    1
    23    10    11   ar
    24    11    35    1
    25    35    36    2
    26    11    12   ar
    27    12    13   ar
    28    17    18   ar
    29    18    19   ar
    30    19    20   ar
    31    20    21    1
    32    21    22    3
    33    29    30    1
    34    30    31    1
    35    31    26    1
    36    20    15   ar
    37    13     4    1
    38    13     8   ar
    39     1    14    1
