@<TRIPOS>MOLECULE
*****
 35 38 0 0 0
SMALL
GASTEIGER

@<TRIPOS>ATOM
      1 N         143.4178  139.3341  163.1422 N.3     1  UNL1       -0.2679
      2 C         142.2564  138.9965  162.2549 C.3     1  UNL1        0.0897
      3 C         141.0052  138.4169  162.8451 C.3     1  UNL1        0.0897
      4 N         140.9153  138.1749  164.3228 N.3     1  UNL1       -0.2680
      5 C         142.0767  138.5124  165.2102 C.3     1  UNL1        0.0897
      6 C         143.3279  139.0920  164.6198 C.3     1  UNL1        0.0897
      7 C         144.6690  139.9137  162.5520 C.3     1  UNL1        0.1080
      8 C         144.9609  141.3774  162.7018 C.3     1  UNL1        0.1661
      9 O         146.3107  141.8283  163.1757 O.3     1  UNL1       -0.3771
     10 H         146.8713  141.0538  163.3393 H       1  UNL1        0.2109
     11 C         142.6661  143.8745  160.6406 C.ar    1  UNL1        0.1510
     12 C         143.7241  142.8618  160.9649 C.ar    1  UNL1        0.0548
     13 C         143.9029  142.3901  162.3776 C.ar    1  UNL1        0.0901
     14 N         143.0239  142.9311  163.4659 N.ar    1  UNL1       -0.2448
     15 C         141.9660  143.9438  163.1416 C.ar    1  UNL1        0.1118
     16 C         141.7871  144.4155  161.7290 C.ar    1  UNL1        0.1213
     17 C         143.0713  143.5569  158.0941 C.3     1  UNL1        0.2525
     18 O         142.4872  144.3462  159.2280 O.3     1  UNL1       -0.4707
     19 C         140.7291  145.4283  161.4048 C.1     1  UNL1        0.1051
     20 N         139.6710  146.4409  161.0807 N.1     1  UNL1       -0.1907
     21 C         139.6641  137.5953  164.9131 C.3     1  UNL1        0.1064
     22 C         138.6328  138.4994  165.5205 C.3     1  UNL1        0.1483
     23 O         137.7681  138.0041  166.6417 O.3     1  UNL1       -0.3786
     24 H         137.1601  138.7082  166.9164 H       1  UNL1        0.2108
     25 C         138.4661  139.8988  165.0067 C.ar    1  UNL1        0.0015
     26 C         137.6652  140.1510  163.7639 C.ar    1  UNL1       -0.0020
     27 C         137.4985  141.5504  163.2501 C.ar    1  UNL1        0.0060
     28 C         138.1328  142.6976  163.9793 C.ar    1  UNL1        0.0748
     29 C         138.9337  142.4454  165.2223 C.ar    1  UNL1        0.0233
     30 C         139.1004  141.0460  165.7360 C.ar    1  UNL1       -0.0238
     31 C         139.9013  140.7937  166.9790 C.3     1  UNL1        0.0306
     32 C         139.4379  143.7657  165.7247 C.3     1  UNL1        0.2352
     33 O         138.9486  144.8339  164.7923 O.3     1  UNL1       -0.4404
     34 C         138.1420  144.1738  163.7136 C.2     1  UNL1        0.3413
     35 O         137.4637  144.8681  162.5699 O.2     1  UNL1       -0.2449
@<TRIPOS>BOND
     1    17    18    1
     2    18    11    1
     3    11    12   ar
     4    12    13   ar
     5    13     8    1
     6     8     9    1
     7     8     7    1
     8     7     1    1
     9     1     2    1
    10     2     3    1
    11     3     4    1
    12     4    21    1
    13    21    22    1
    14    22    23    1
    15    22    25    1
    16    25    26   ar
    17    26    27   ar
    18    27    28   ar
    19    28    29   ar
    20    29    30   ar
    21    30    31    1
    22    29    32    1
    23    32    33    1
    24    33    34    1
    25    34    35    2
    26     4     5    1
    27     5     6    1
    28    13    14   ar
    29    14    15   ar
    30    15    16   ar
    31    16    19    1
    32    19    20    3
    33    16    11   ar
    34     6     1    1
    35    30    25   ar
    36    34    28    1
    37     9    10    1
    38    23    24    1
@<TRIPOS>MOLECULE
*****
 35 38 0 0 0
SMALL
GASTEIGER

@<TRIPOS>ATOM
      1 N         140.7508  140.4938  166.7128 N.3     1  UNL1       -0.2679
      2 C         140.9978  141.9645  166.5508 C.3     1  UNL1        0.0897
      3 C         142.2513  142.4452  165.8820 C.3     1  UNL1        0.0897
      4 N         143.2579  141.4553  165.3751 N.3     1  UNL1       -0.2680
      5 C         143.0109  139.9846  165.5371 C.3     1  UNL1        0.0897
      6 C         141.7573  139.5040  166.2060 C.3     1  UNL1        0.0897
      7 C         139.4972  140.0131  167.3817 C.3     1  UNL1        0.1080
      8 C         138.5222  139.1611  166.6243 C.3     1  UNL1        0.1661
      9 O         137.6728  138.1635  167.3545 O.3     1  UNL1       -0.3771
     10 H         137.8771  138.1971  168.3022 H       1  UNL1        0.2109
     11 C         137.8000  140.7488  163.0596 C.ar    1  UNL1        0.1510
     12 C         137.9255  140.6031  164.5472 C.ar    1  UNL1        0.0548
     13 C         138.3968  139.3067  165.1367 C.ar    1  UNL1        0.0901
     14 N         138.7425  138.1562  164.2386 N.ar    1  UNL1       -0.2448
     15 C         138.6170  138.3019  162.7510 C.ar    1  UNL1        0.1118
     16 C         138.1457  139.5982  162.1615 C.ar    1  UNL1        0.1213
     17 C         137.6469  143.3406  163.1559 C.3     1  UNL1        0.2525
     18 O         137.3287  142.0451  162.4700 O.3     1  UNL1       -0.4707
     19 C         138.0202  139.7439  160.6738 C.1     1  UNL1        0.1051
     20 N         137.8948  139.8894  159.1861 N.1     1  UNL1       -0.1907
     21 C         144.5115  141.9360  164.7062 C.3     1  UNL1        0.1064
     22 C         144.5508  142.0997  163.2157 C.3     1  UNL1        0.1483
     23 O         145.8425  141.9181  162.4751 O.3     1  UNL1       -0.3786
     24 H         145.6939  142.0581  161.5268 H       1  UNL1        0.2108
     25 C         143.2984  142.4451  162.4658 C.ar    1  UNL1        0.0015
     26 C         142.5374  141.3736  161.7430 C.ar    1  UNL1       -0.0020
     27 C         141.2851  141.7189  160.9931 C.ar    1  UNL1        0.0060
     28 C         140.7937  143.1359  160.9661 C.ar    1  UNL1        0.0748
     29 C         141.5546  144.2075  161.6890 C.ar    1  UNL1        0.0233
     30 C         142.8070  143.8622  162.4388 C.ar    1  UNL1       -0.0238
     31 C         143.5680  144.9337  163.1618 C.3     1  UNL1        0.0306
     32 C         140.8323  145.5063  161.4858 C.3     1  UNL1        0.2352
     33 O         139.6250  145.2374  160.6374 O.3     1  UNL1       -0.4404
     34 C         139.6010  143.7724  160.3161 C.2     1  UNL1        0.3413
     35 O         138.5662  143.0677  159.4900 O.2     1  UNL1       -0.2449
@<TRIPOS>BOND
     1    17    18    1
     2    18    11    1
     3    11    12   ar
     4    12    13   ar
     5    13     8    1
     6     8     9    1
     7     8     7    1
     8     7     1    1
     9     1     2    1
    10     2     3    1
    11     3     4    1
    12     4    21    1
    13    21    22    1
    14    22    23    1
    15    22    25    1
    16    25    26   ar
    17    26    27   ar
    18    27    28   ar
    19    28    29   ar
    20    29    30   ar
    21    30    31    1
    22    29    32    1
    23    32    33    1
    24    33    34    1
    25    34    35    2
    26     4     5    1
    27     5     6    1
    28    13    14   ar
    29    14    15   ar
    30    15    16   ar
    31    16    19    1
    32    19    20    3
    33    16    11   ar
    34     6     1    1
    35    30    25   ar
    36    34    28    1
    37     9    10    1
    38    23    24    1
@<TRIPOS>MOLECULE
*****
 35 38 0 0 0
SMALL
GASTEIGER

@<TRIPOS>ATOM
      1 N         141.1659  141.5446  159.3881 N.3     1  UNL1       -0.2679
      2 C         139.9355  142.2678  159.8497 C.3     1  UNL1        0.0897
      3 C         139.0269  141.6327  160.8601 C.3     1  UNL1        0.0897
      4 N         139.3488  140.2742  161.4090 N.3     1  UNL1       -0.2680
      5 C         140.5792  139.5510  160.9474 C.3     1  UNL1        0.0897
      6 C         141.4877  140.1862  159.9370 C.3     1  UNL1        0.0897
      7 C         142.0745  142.1797  158.3777 C.3     1  UNL1        0.1080
      8 C         143.3499  142.8327  158.8215 C.3     1  UNL1        0.1661
      9 O         144.3550  143.2841  157.8036 O.3     1  UNL1       -0.3771
     10 H         144.0275  143.0807  156.9135 H       1  UNL1        0.2109
     11 C         144.8427  142.3261  162.4635 C.ar    1  UNL1        0.1510
     12 C         144.5723  142.1247  161.0019 C.ar    1  UNL1        0.0548
     13 C         143.6203  143.0341  160.2830 C.ar    1  UNL1        0.0901
     14 N         142.9388  144.1449  161.0258 N.ar    1  UNL1       -0.2448
     15 C         143.2092  144.3462  162.4874 C.ar    1  UNL1        0.1118
     16 C         144.1611  143.4368  163.2062 C.ar    1  UNL1        0.1213
     17 C         145.2746  140.2193  163.9213 C.3     1  UNL1        0.2525
     18 O         145.7947  141.4167  163.1825 O.3     1  UNL1       -0.4707
     19 C         144.4315  143.6383  164.6679 C.1     1  UNL1        0.1051
     20 N         144.7018  143.8396  166.1296 N.1     1  UNL1       -0.1907
     21 C         138.4402  139.6391  162.4194 C.3     1  UNL1        0.1064
     22 C         137.8463  140.4678  163.5196 C.3     1  UNL1        0.1483
     23 O         136.6750  141.3612  163.2369 O.3     1  UNL1       -0.3786
     24 H         136.4167  141.8228  164.0501 H       1  UNL1        0.2108
     25 C         138.4236  140.4031  164.9026 C.ar    1  UNL1        0.0015
     26 C         138.0377  139.2850  165.8249 C.ar    1  UNL1       -0.0020
     27 C         138.6150  139.2203  167.2078 C.ar    1  UNL1        0.0060
     28 C         139.5784  140.2738  167.6684 C.ar    1  UNL1        0.0748
     29 C         139.9644  141.3920  166.7461 C.ar    1  UNL1        0.0233
     30 C         139.3870  141.4567  165.3632 C.ar    1  UNL1       -0.0238
     31 C         139.7730  142.5748  164.4408 C.3     1  UNL1        0.0306
     32 C         140.9296  142.2805  167.4733 C.3     1  UNL1        0.2352
     33 O         141.1402  141.7114  168.8451 O.3     1  UNL1       -0.4404
     34 C         140.3051  140.4712  168.9657 C.2     1  UNL1        0.3413
     35 O         140.2129  139.5842  170.1718 O.2     1  UNL1       -0.2449
@<TRIPOS>BOND
     1    17    18    1
     2    18    11    1
     3    11    12   ar
     4    12    13   ar
     5    13     8    1
     6     8     9    1
     7     8     7    1
     8     7     1    1
     9     1     2    1
    10     2     3    1
    11     3     4    1
    12     4    21    1
    13    21    22    1
    14    22    23    1
    15    22    25    1
    16    25    26   ar
    17    26    27   ar
    18    27    28   ar
    19    28    29   ar
    20    29    30   ar
    21    30    31    1
    22    29    32    1
    23    32    33    1
    24    33    34    1
    25    34    35    2
    26     4     5    1
    27     5     6    1
    28    13    14   ar
    29    14    15   ar
    30    15    16   ar
    31    16    19    1
    32    19    20    3
    33    16    11   ar
    34     6     1    1
    35    30    25   ar
    36    34    28    1
    37     9    10    1
    38    23    24    1
@<TRIPOS>MOLECULE
*****
 35 38 0 0 0
SMALL
GASTEIGER

@<TRIPOS>ATOM
      1 N         142.3848  144.0930  164.0320 N.3     1  UNL1       -0.2679
      2 C         143.7087  143.5514  164.4836 C.3     1  UNL1        0.0897
      3 C         143.7887  142.6942  165.7120 C.3     1  UNL1        0.0897
      4 N         142.5448  142.3787  166.4886 N.3     1  UNL1       -0.2680
      5 C         141.2209  142.9203  166.0369 C.3     1  UNL1        0.0897
      6 C         141.1409  143.7774  164.8086 C.3     1  UNL1        0.0897
      7 C         142.3047  144.9502  162.8037 C.3     1  UNL1        0.1080
      8 C         140.9686  145.2962  162.2161 C.3     1  UNL1        0.1661
      9 O         140.3399  146.6251  162.5137 O.3     1  UNL1       -0.3771
     10 H         140.9237  147.1358  163.0962 H       1  UNL1        0.2109
     11 C         138.4945  142.4345  161.0167 C.ar    1  UNL1        0.1510
     12 C         139.2019  143.4175  161.9016 C.ar    1  UNL1        0.0548
     13 C         140.2613  144.3132  161.3311 C.ar    1  UNL1        0.0901
     14 N         140.6133  144.2258  159.8756 N.ar    1  UNL1       -0.2448
     15 C         139.9059  143.2427  158.9907 C.ar    1  UNL1        0.1118
     16 C         138.8465  142.3471  159.5612 C.ar    1  UNL1        0.1213
     17 C         137.4701  141.1665  163.0397 C.3     1  UNL1        0.2525
     18 O         137.4350  141.5388  161.5871 O.3     1  UNL1       -0.4707
     19 C         138.1391  141.3640  158.6761 C.1     1  UNL1        0.1051
     20 N         137.4317  140.3810  157.7911 N.1     1  UNL1       -0.1907
     21 C         142.6248  141.5215  167.7169 C.3     1  UNL1        0.1064
     22 C         142.3925  140.0430  167.6162 C.3     1  UNL1        0.1483
     23 O         142.9272  139.1258  168.6758 O.3     1  UNL1       -0.3786
     24 H         142.6907  138.2101  168.4603 H       1  UNL1        0.2108
     25 C         141.6253  139.4817  166.4557 C.ar    1  UNL1        0.0015
     26 C         140.1257  139.4702  166.4832 C.ar    1  UNL1       -0.0020
     27 C         139.3586  138.9089  165.3228 C.ar    1  UNL1        0.0060
     28 C         140.0911  138.3592  164.1350 C.ar    1  UNL1        0.0748
     29 C         141.5909  138.3706  164.1075 C.ar    1  UNL1        0.0233
     30 C         142.3580  138.9319  165.2678 C.ar    1  UNL1       -0.0238
     31 C         143.8577  138.9434  165.2404 C.3     1  UNL1        0.0306
     32 C         142.0354  137.7641  162.8096 C.3     1  UNL1        0.2352
     33 O         140.8104  137.3778  162.0349 O.3     1  UNL1       -0.4404
     34 C         139.6088  137.7455  162.8540 C.2     1  UNL1        0.3413
     35 O         138.1763  137.5364  162.4612 O.2     1  UNL1       -0.2449
@<TRIPOS>BOND
     1    17    18    1
     2    18    11    1
     3    11    12   ar
     4    12    13   ar
     5    13     8    1
     6     8     9    1
     7     8     7    1
     8     7     1    1
     9     1     2    1
    10     2     3    1
    11     3     4    1
    12     4    21    1
    13    21    22    1
    14    22    23    1
    15    22    25    1
    16    25    26   ar
    17    26    27   ar
    18    27    28   ar
    19    28    29   ar
    20    29    30   ar
    21    30    31    1
    22    29    32    1
    23    32    33    1
    24    33    34    1
    25    34    35    2
    26     4     5    1
    27     5     6    1
    28    13    14   ar
    29    14    15   ar
    30    15    16   ar
    31    16    19    1
    32    19    20    3
    33    16    11   ar
    34     6     1    1
    35    30    25   ar
    36    34    28    1
    37     9    10    1
    38    23    24    1
@<TRIPOS>MOLECULE
*****
 35 38 0 0 0
SMALL
GASTEIGER

@<TRIPOS>ATOM
      1 N         142.4037  137.9178  162.3482 N.3     1  UNL1       -0.2679
      2 C         142.6098  137.9869  163.8324 C.3     1  UNL1        0.0897
      3 C         141.4328  137.8979  164.7580 C.3     1  UNL1        0.0897
      4 N         140.0497  137.7397  164.1993 N.3     1  UNL1       -0.2680
      5 C         139.8436  137.6706  162.7151 C.3     1  UNL1        0.0897
      6 C         141.0206  137.7596  161.7896 C.3     1  UNL1        0.0897
      7 C         143.5807  138.0068  161.4226 C.3     1  UNL1        0.1080
      8 C         143.8624  139.2840  160.6881 C.3     1  UNL1        0.1661
      9 O         144.1408  139.2558  159.2144 O.3     1  UNL1       -0.3771
     10 H         144.1005  138.3407  158.8952 H       1  UNL1        0.2109
     11 C         142.7179  142.8445  162.0155 C.ar    1  UNL1        0.1510
     12 C         142.7147  141.5393  161.2764 C.ar    1  UNL1        0.0548
     13 C         143.8657  140.5892  161.4271 C.ar    1  UNL1        0.0901
     14 N         145.0198  140.9444  162.3169 N.ar    1  UNL1       -0.2448
     15 C         145.0230  142.2497  163.0560 C.ar    1  UNL1        0.1118
     16 C         143.8721  143.1998  162.9053 C.ar    1  UNL1        0.1213
     17 C         141.4509  144.6427  160.6331 C.3     1  UNL1        0.2525
     18 O         141.5670  143.7947  161.8648 O.3     1  UNL1       -0.4707
     19 C         143.8754  144.5051  163.6444 C.1     1  UNL1        0.1051
     20 N         143.8786  145.8103  164.3836 N.1     1  UNL1       -0.1907
     21 C         138.8727  137.6507  165.1249 C.3     1  UNL1        0.1064
     22 C         138.4280  138.8611  165.8912 C.3     1  UNL1        0.1483
     23 O         137.9710  138.7224  167.3131 O.3     1  UNL1       -0.3786
     24 H         137.7203  139.5934  167.6586 H       1  UNL1        0.2108
     25 C         138.4402  140.2102  165.2355 C.ar    1  UNL1        0.0015
     26 C         137.5384  140.4853  164.0690 C.ar    1  UNL1       -0.0020
     27 C         137.5506  141.8344  163.4133 C.ar    1  UNL1        0.0060
     28 C         138.4647  142.9083  163.9242 C.ar    1  UNL1        0.0748
     29 C         139.3666  142.6332  165.0908 C.ar    1  UNL1        0.0233
     30 C         139.3544  141.2842  165.7465 C.ar    1  UNL1       -0.0238
     31 C         140.2562  141.0090  166.9131 C.3     1  UNL1        0.0306
     32 C         140.1539  143.8786  165.3719 C.3     1  UNL1        0.2352
     33 O         139.7386  144.9234  164.3790 O.3     1  UNL1       -0.4404
     34 C         138.6946  144.3238  163.4843 C.2     1  UNL1        0.3413
     35 O         138.0022  145.0177  162.3490 O.2     1  UNL1       -0.2449
@<TRIPOS>BOND
     1    17    18    1
     2    18    11    1
     3    11    12   ar
     4    12    13   ar
     5    13     8    1
     6     8     9    1
     7     8     7    1
     8     7     1    1
     9     1     2    1
    10     2     3    1
    11     3     4    1
    12     4    21    1
    13    21    22    1
    14    22    23    1
    15    22    25    1
    16    25    26   ar
    17    26    27   ar
    18    27    28   ar
    19    28    29   ar
    20    29    30   ar
    21    30    31    1
    22    29    32    1
    23    32    33    1
    24    33    34    1
    25    34    35    2
    26     4     5    1
    27     5     6    1
    28    13    14   ar
    29    14    15   ar
    30    15    16   ar
    31    16    19    1
    32    19    20    3
    33    16    11   ar
    34     6     1    1
    35    30    25   ar
    36    34    28    1
    37     9    10    1
    38    23    24    1
@<TRIPOS>MOLECULE
*****
 35 38 0 0 0
SMALL
GASTEIGER

@<TRIPOS>ATOM
      1 N         143.5526  138.9882  163.4235 N.3     1  UNL1       -0.2679
      2 C         142.4717  138.0650  163.9025 C.3     1  UNL1        0.0897
      3 C         141.8329  138.2888  165.2411 C.3     1  UNL1        0.0897
      4 N         142.2750  139.4359  166.1007 N.3     1  UNL1       -0.2680
      5 C         143.3559  140.3591  165.6217 C.3     1  UNL1        0.0897
      6 C         143.9946  140.1352  164.2831 C.3     1  UNL1        0.0897
      7 C         144.1914  138.7644  162.0849 C.3     1  UNL1        0.1080
      8 C         143.4382  139.0929  160.8300 C.3     1  UNL1        0.1661
      9 O         143.3918  138.1045  159.7027 O.3     1  UNL1       -0.3771
     10 H         143.8958  137.3123  159.9463 H       1  UNL1        0.2109
     11 C         142.7123  142.9909  160.9977 C.ar    1  UNL1        0.1510
     12 C         143.4190  141.6740  161.1252 C.ar    1  UNL1        0.0548
     13 C         142.7313  140.4097  160.7025 C.ar    1  UNL1        0.0901
     14 N         141.3369  140.4624  160.1522 N.ar    1  UNL1       -0.2448
     15 C         140.6302  141.7792  160.0247 C.ar    1  UNL1        0.1118
     16 C         141.3178  143.0435  160.4475 C.ar    1  UNL1        0.1213
     17 C         143.4862  144.6118  162.8749 C.3     1  UNL1        0.2525
     18 O         143.3999  144.2553  161.4204 O.3     1  UNL1       -0.4707
     19 C         140.6110  144.3604  160.3199 C.1     1  UNL1        0.1051
     20 N         139.9041  145.6772  160.1925 N.1     1  UNL1       -0.1907
     21 C         141.6362  139.6597  167.4392 C.3     1  UNL1        0.1064
     22 C         140.2288  140.1718  167.5224 C.3     1  UNL1        0.1483
     23 O         139.3594  139.7909  168.6839 O.3     1  UNL1       -0.3786
     24 H         138.4872  140.2034  168.5839 H       1  UNL1        0.2108
     25 C         139.6906  141.0648  166.4439 C.ar    1  UNL1        0.0015
     26 C         140.0785  142.5132  166.4066 C.ar    1  UNL1       -0.0020
     27 C         139.5404  143.4063  165.3282 C.ar    1  UNL1        0.0060
     28 C         138.6144  142.8508  164.2871 C.ar    1  UNL1        0.0748
     29 C         138.2265  141.4023  164.3244 C.ar    1  UNL1        0.0233
     30 C         138.7646  140.5093  165.4028 C.ar    1  UNL1       -0.0238
     31 C         138.3767  139.0607  165.4401 C.3     1  UNL1        0.0306
     32 C         137.3027  141.1400  163.1721 C.3     1  UNL1        0.2352
     33 O         137.1197  142.4263  162.4226 O.3     1  UNL1       -0.4404
     34 C         137.9304  143.4837  163.1117 C.2     1  UNL1        0.3413
     35 O         138.0381  144.9215  162.6980 O.2     1  UNL1       -0.2449
@<TRIPOS>BOND
     1    17    18    1
     2    18    11    1
     3    11    12   ar
     4    12    13   ar
     5    13     8    1
     6     8     9    1
     7     8     7    1
     8     7     1    1
     9     1     2    1
    10     2     3    1
    11     3     4    1
    12     4    21    1
    13    21    22    1
    14    22    23    1
    15    22    25    1
    16    25    26   ar
    17    26    27   ar
    18    27    28   ar
    19    28    29   ar
    20    29    30   ar
    21    30    31    1
    22    29    32    1
    23    32    33    1
    24    33    34    1
    25    34    35    2
    26     4     5    1
    27     5     6    1
    28    13    14   ar
    29    14    15   ar
    30    15    16   ar
    31    16    19    1
    32    19    20    3
    33    16    11   ar
    34     6     1    1
    35    30    25   ar
    36    34    28    1
    37     9    10    1
    38    23    24    1
@<TRIPOS>MOLECULE
*****
 35 38 0 0 0
SMALL
GASTEIGER

@<TRIPOS>ATOM
      1 N         138.1145  140.7757  160.9395 N.3     1  UNL1       -0.2679
      2 C         138.6185  142.1244  160.5189 C.3     1  UNL1        0.0897
      3 C         138.4901  143.2959  161.4469 C.3     1  UNL1        0.0897
      4 N         137.8575  143.1186  162.7955 N.3     1  UNL1       -0.2680
      5 C         137.3535  141.7698  163.2160 C.3     1  UNL1        0.0897
      6 C         137.4819  140.5984  162.2880 C.3     1  UNL1        0.0897
      7 C         138.2429  139.6042  160.0116 C.3     1  UNL1        0.1080
      8 C         139.5136  138.8076  159.9806 C.3     1  UNL1        0.1661
      9 O         139.9346  138.1161  158.7178 O.3     1  UNL1       -0.3771
     10 H         139.2790  138.2844  158.0230 H       1  UNL1        0.2109
     11 C         140.6782  137.9138  163.6676 C.ar    1  UNL1        0.1510
     12 C         139.8287  138.0189  162.4358 C.ar    1  UNL1        0.0548
     13 C         140.3631  138.7025  161.2123 C.ar    1  UNL1        0.0901
     14 N         141.7470  139.2811  161.2205 N.ar    1  UNL1       -0.2448
     15 C         142.5965  139.1760  162.4523 C.ar    1  UNL1        0.1118
     16 C         142.0621  138.4924  163.6759 C.ar    1  UNL1        0.1213
     17 C         138.7564  137.5331  165.3739 C.3     1  UNL1        0.2525
     18 O         140.1439  137.2302  164.8912 O.3     1  UNL1       -0.4707
     19 C         142.9117  138.3873  164.9077 C.1     1  UNL1        0.1051
     20 N         143.7612  138.2822  166.1394 N.1     1  UNL1       -0.1907
     21 C         137.7291  144.2900  163.7234 C.3     1  UNL1        0.1064
     22 C         138.8042  144.5699  164.7312 C.3     1  UNL1        0.1483
     23 O         138.5278  145.4828  165.8889 O.3     1  UNL1       -0.3786
     24 H         139.3225  145.5552  166.4404 H       1  UNL1        0.2108
     25 C         140.1559  143.9369  164.5813 C.ar    1  UNL1        0.0015
     26 C         140.4967  142.7024  165.3621 C.ar    1  UNL1       -0.0020
     27 C         141.8483  142.0694  165.2122 C.ar    1  UNL1        0.0060
     28 C         142.8591  142.6710  164.2815 C.ar    1  UNL1        0.0748
     29 C         142.5184  143.9056  163.5006 C.ar    1  UNL1        0.0233
     30 C         141.1668  144.5385  163.6505 C.ar    1  UNL1       -0.0238
     31 C         140.8260  145.7731  162.8697 C.3     1  UNL1        0.0306
     32 C         143.7103  144.2699  162.6660 C.3     1  UNL1        0.2352
     33 O         144.7877  143.2604  162.9310 O.3     1  UNL1       -0.4404
     34 C         144.2617  142.2722  163.9294 C.2     1  UNL1        0.3413
     35 O         145.0073  141.0925  164.4792 O.2     1  UNL1       -0.2449
@<TRIPOS>BOND
     1    17    18    1
     2    18    11    1
     3    11    12   ar
     4    12    13   ar
     5    13     8    1
     6     8     9    1
     7     8     7    1
     8     7     1    1
     9     1     2    1
    10     2     3    1
    11     3     4    1
    12     4    21    1
    13    21    22    1
    14    22    23    1
    15    22    25    1
    16    25    26   ar
    17    26    27   ar
    18    27    28   ar
    19    28    29   ar
    20    29    30   ar
    21    30    31    1
    22    29    32    1
    23    32    33    1
    24    33    34    1
    25    34    35    2
    26     4     5    1
    27     5     6    1
    28    13    14   ar
    29    14    15   ar
    30    15    16   ar
    31    16    19    1
    32    19    20    3
    33    16    11   ar
    34     6     1    1
    35    30    25   ar
    36    34    28    1
    37     9    10    1
    38    23    24    1
@<TRIPOS>MOLECULE
*****
 35 38 0 0 0
SMALL
GASTEIGER

@<TRIPOS>ATOM
      1 N         140.1726  138.9293  161.2036 N.3     1  UNL1       -0.2679
      2 C         141.0443  140.0519  160.7242 C.3     1  UNL1        0.0897
      3 C         142.3895  140.2761  161.3488 C.3     1  UNL1        0.0897
      4 N         142.8629  139.3777  162.4529 N.3     1  UNL1       -0.2680
      5 C         141.9911  138.2551  162.9323 C.3     1  UNL1        0.0897
      6 C         140.6460  138.0309  162.3076 C.3     1  UNL1        0.0897
      7 C         138.8274  138.7050  160.5789 C.3     1  UNL1        0.1080
      8 C         137.6774  139.6009  160.9324 C.3     1  UNL1        0.1661
      9 O         136.3364  139.3867  160.2954 O.3     1  UNL1       -0.3771
     10 H         136.3849  138.6343  159.6850 H       1  UNL1        0.2109
     11 C         138.2505  143.2297  162.4336 C.ar    1  UNL1        0.1510
     12 C         138.0594  142.1195  161.4432 C.ar    1  UNL1        0.0548
     13 C         137.8685  140.7111  161.9229 C.ar    1  UNL1        0.0901
     14 N         137.8688  140.4129  163.3929 N.ar    1  UNL1       -0.2448
     15 C         138.0599  141.5231  164.3833 C.ar    1  UNL1        0.1118
     16 C         138.2507  142.9315  163.9036 C.ar    1  UNL1        0.1213
     17 C         139.8190  145.1452  161.6460 C.3     1  UNL1        0.2525
     18 O         138.4413  144.6381  161.9540 O.3     1  UNL1       -0.4707
     19 C         138.4418  144.0417  164.8942 C.1     1  UNL1        0.1051
     20 N         138.6328  145.1518  165.8846 N.1     1  UNL1       -0.1907
     21 C         144.2080  139.6020  163.0775 C.3     1  UNL1        0.1064
     22 C         144.3589  140.5845  164.2009 C.3     1  UNL1        0.1483
     23 O         145.3977  141.6634  164.1192 O.3     1  UNL1       -0.3786
     24 H         145.3622  142.2079  164.9212 H       1  UNL1        0.2108
     25 C         143.4708  140.4880  165.4060 C.ar    1  UNL1        0.0015
     26 C         143.5476  139.2861  166.2999 C.ar    1  UNL1       -0.0020
     27 C         142.6597  139.1896  167.5050 C.ar    1  UNL1        0.0060
     28 C         141.6949  140.2952  167.8161 C.ar    1  UNL1        0.0748
     29 C         141.6181  141.4973  166.9221 C.ar    1  UNL1        0.0233
     30 C         142.5060  141.5937  165.7171 C.ar    1  UNL1       -0.0238
     31 C         142.4293  142.7958  164.8231 C.3     1  UNL1        0.0306
     32 C         140.5770  142.4229  167.4784 C.3     1  UNL1        0.2352
     33 O         140.0104  141.7929  168.7161 O.3     1  UNL1       -0.4404
     34 C         140.7013  140.4779  168.9248 C.2     1  UNL1        0.3413
     35 O         140.4437  139.5148  170.0455 O.2     1  UNL1       -0.2449
@<TRIPOS>BOND
     1    17    18    1
     2    18    11    1
     3    11    12   ar
     4    12    13   ar
     5    13     8    1
     6     8     9    1
     7     8     7    1
     8     7     1    1
     9     1     2    1
    10     2     3    1
    11     3     4    1
    12     4    21    1
    13    21    22    1
    14    22    23    1
    15    22    25    1
    16    25    26   ar
    17    26    27   ar
    18    27    28   ar
    19    28    29   ar
    20    29    30   ar
    21    30    31    1
    22    29    32    1
    23    32    33    1
    24    33    34    1
    25    34    35    2
    26     4     5    1
    27     5     6    1
    28    13    14   ar
    29    14    15   ar
    30    15    16   ar
    31    16    19    1
    32    19    20    3
    33    16    11   ar
    34     6     1    1
    35    30    25   ar
    36    34    28    1
    37     9    10    1
    38    23    24    1
@<TRIPOS>MOLECULE
*****
 35 38 0 0 0
SMALL
GASTEIGER

@<TRIPOS>ATOM
      1 N         139.1542  140.4883  160.4439 N.3     1  UNL1       -0.2679
      2 C         138.1092  141.4009  161.0141 C.3     1  UNL1        0.0897
      3 C         138.3887  142.8682  161.1512 C.3     1  UNL1        0.0897
      4 N         139.7134  143.4229  160.7180 N.3     1  UNL1       -0.2680
      5 C         140.7584  142.5103  160.1477 C.3     1  UNL1        0.0897
      6 C         140.4788  141.0431  160.0107 C.3     1  UNL1        0.0897
      7 C         138.8746  139.0210  160.3068 C.3     1  UNL1        0.1080
      8 C         138.7145  138.1702  161.5318 C.3     1  UNL1        0.1661
      9 O         137.4869  137.3255  161.7030 O.3     1  UNL1       -0.3771
     10 H         136.9028  137.4450  160.9378 H       1  UNL1        0.2109
     11 C         142.2958  138.1831  163.2417 C.ar    1  UNL1        0.1510
     12 C         141.2282  138.1891  162.1881 C.ar    1  UNL1        0.0548
     13 C         139.7820  138.1643  162.5855 C.ar    1  UNL1        0.0901
     14 N         139.4034  138.1334  164.0366 N.ar    1  UNL1       -0.2448
     15 C         140.4710  138.1274  165.0903 C.ar    1  UNL1        0.1118
     16 C         141.9172  138.1523  164.6928 C.ar    1  UNL1        0.1213
     17 C         144.1232  138.1284  161.3958 C.3     1  UNL1        0.2525
     18 O         143.7420  138.2080  162.8443 O.3     1  UNL1       -0.4707
     19 C         142.9848  138.1463  165.7466 C.1     1  UNL1        0.1051
     20 N         144.0522  138.1404  166.8004 N.1     1  UNL1       -0.1907
     21 C         139.9930  144.8902  160.8551 C.3     1  UNL1        0.1064
     22 C         140.3013  145.4722  162.2027 C.3     1  UNL1        0.1483
     23 O         140.3084  146.9601  162.3933 O.3     1  UNL1       -0.3786
     24 H         140.5245  147.1668  163.3161 H       1  UNL1        0.2108
     25 C         140.6027  144.5664  163.3598 C.ar    1  UNL1        0.0015
     26 C         139.5146  144.1910  164.3215 C.ar    1  UNL1       -0.0020
     27 C         139.8159  143.2852  165.4786 C.ar    1  UNL1        0.0060
     28 C         141.2054  142.7548  165.6738 C.ar    1  UNL1        0.0748
     29 C         142.2935  143.1302  164.7121 C.ar    1  UNL1        0.0233
     30 C         141.9922  144.0360  163.5550 C.ar    1  UNL1       -0.0238
     31 C         143.0803  144.4115  162.5932 C.3     1  UNL1        0.0306
     32 C         143.5582  142.4577  165.1574 C.3     1  UNL1        0.2352
     33 O         143.2516  141.6666  166.3944 O.3     1  UNL1       -0.4404
     34 C         141.7975  141.8502  166.7136 C.2     1  UNL1        0.3413
     35 O         141.0643  141.2370  167.8696 O.2     1  UNL1       -0.2449
@<TRIPOS>BOND
     1    17    18    1
     2    18    11    1
     3    11    12   ar
     4    12    13   ar
     5    13     8    1
     6     8     9    1
     7     8     7    1
     8     7     1    1
     9     1     2    1
    10     2     3    1
    11     3     4    1
    12     4    21    1
    13    21    22    1
    14    22    23    1
    15    22    25    1
    16    25    26   ar
    17    26    27   ar
    18    27    28   ar
    19    28    29   ar
    20    29    30   ar
    21    30    31    1
    22    29    32    1
    23    32    33    1
    24    33    34    1
    25    34    35    2
    26     4     5    1
    27     5     6    1
    28    13    14   ar
    29    14    15   ar
    30    15    16   ar
    31    16    19    1
    32    19    20    3
    33    16    11   ar
    34     6     1    1
    35    30    25   ar
    36    34    28    1
    37     9    10    1
    38    23    24    1
