@<TRIPOS>MOLECULE
*****
 29 31 0 0 0
SMALL
GASTEIGER

@<TRIPOS>ATOM
      1 C         140.0101  144.7725  163.7554 C.ar    1  UNL1        0.1404
      2 C         139.8914  145.2412  162.3355 C.ar    1  UNL1        0.0430
      3 C         140.9984  144.9687  161.3606 C.ar    1  UNL1        0.0754
      4 C         142.2241  144.2275  161.8058 C.ar    1  UNL1        0.1033
      5 N         143.4683  143.8157  161.0761 N.ar    1  UNL1       -0.2238
      6 C         144.3560  143.0925  162.0451 C.ar    1  UNL1        0.1788
      7 N         143.6604  143.0573  163.3737 N.ar    1  UNL1       -0.3031
      8 C         142.3428  143.7588  163.2257 C.ar    1  UNL1        0.0824
      9 C         141.2358  144.0313  164.2005 C.ar    1  UNL1        0.0556
     10 C         140.8796  145.4374  159.9407 C.2     1  UNL1        0.2475
     11 O         139.5610  145.9286  159.4209 O.2     1  UNL1       -0.2701
     12 N         142.0793  145.4150  159.0406 N.am    1  UNL1       -0.2982
     13 H         142.9447  145.0926  159.3818 H       1  UNL1        0.1498
     14 C         141.9604  145.8837  157.6207 C.3     1  UNL1        0.1280
     15 C         141.4574  144.9481  156.5616 C.3     1  UNL1        0.2144
     16 F         140.1133  144.2990  156.7110 F       1  UNL1       -0.2324
     17 C         137.7369  144.1062  164.8224 C.3     1  UNL1        0.2525
     18 O         138.9031  145.0450  164.7303 O.3     1  UNL1       -0.4714
     19 C         144.1896  142.4307  164.6296 C.3     1  UNL1        0.1531
     20 C         143.6067  141.1413  165.1276 C.ar    1  UNL1        0.0823
     21 N         143.7002  139.9022  164.2877 N.ar    1  UNL1       -0.2266
     22 C         143.1174  138.6128  164.7857 C.ar    1  UNL1        0.1998
     23 N         142.4412  138.5628  166.1237 N.ar    1  UNL1       -0.2093
     24 C         142.3477  139.8021  166.9636 C.ar    1  UNL1        0.1307
     25 C         142.9305  141.0913  166.4656 C.ar    1  UNL1        0.0253
     26 C         142.8371  142.3306  167.3055 C.3     1  UNL1        0.0353
     27 N         141.6715  139.7520  168.3016 N.pl3   1  UNL1       -0.2899
     28 C         140.2170  140.0984  168.4203 C.3     1  UNL1        0.1136
     29 C         142.4500  139.3554  169.5209 C.3     1  UNL1        0.1136
@<TRIPOS>BOND
     1    17    18    1
     2    18     1    1
     3     1     2   ar
     4     2     3   ar
     5     3    10    1
     6    10    11    2
     7    10    12   am
     8    12    14    1
     9    14    15    1
    10    15    16    1
    11     3     4   ar
    12     4     5   ar
    13     5     6   ar
    14     6     7   ar
    15     7    19    1
    16    19    20    1
    17    20    21   ar
    18    21    22   ar
    19    22    23   ar
    20    23    24   ar
    21    24    27    1
    22    27    28    1
    23    27    29    1
    24    24    25   ar
    25    25    26    1
    26     7     8   ar
    27     8     9   ar
    28     9     1   ar
    29     8     4   ar
    30    25    20   ar
    31    12    13    1
@<TRIPOS>MOLECULE
*****
 29 31 0 0 0
SMALL
GASTEIGER

@<TRIPOS>ATOM
      1 C         141.0625  141.9916  168.7269 C.ar    1  UNL1        0.1404
      2 C         140.3126  141.2971  169.8246 C.ar    1  UNL1        0.0430
      3 C         139.2861  140.2559  169.4894 C.ar    1  UNL1        0.0754
      4 C         139.0096  139.9093  168.0564 C.ar    1  UNL1        0.1033
      5 N         138.0624  138.9327  167.4247 N.ar    1  UNL1       -0.2238
      6 C         138.2270  139.0237  165.9366 C.ar    1  UNL1        0.1788
      7 N         139.2760  140.0566  165.6485 N.ar    1  UNL1       -0.3031
      8 C         139.7596  140.6039  166.9587 C.ar    1  UNL1        0.0824
      9 C         140.7861  141.6451  167.2939 C.ar    1  UNL1        0.0556
     10 C         138.5361  139.5613  170.5872 C.2     1  UNL1        0.2475
     11 O         139.2794  138.9895  171.7579 O.2     1  UNL1       -0.2701
     12 N         137.0429  139.4386  170.5143 N.am    1  UNL1       -0.2982
     13 H         136.5551  139.8139  169.7459 H       1  UNL1        0.1498
     14 C         136.2930  138.7440  171.6121 C.3     1  UNL1        0.1280
     15 C         136.3561  137.2504  171.7350 C.3     1  UNL1        0.2144
     16 F         135.5489  136.5495  172.7873 F       1  UNL1       -0.2324
     17 C         142.8502  142.9476  170.3518 C.3     1  UNL1        0.2525
     18 O         142.0890  143.0328  169.0621 O.3     1  UNL1       -0.4714
     19 C         139.7568  140.4696  164.2890 C.3     1  UNL1        0.1531
     20 C         141.0630  139.9501  163.7657 C.ar    1  UNL1        0.0823
     21 N         141.2216  138.4900  163.4612 N.ar    1  UNL1       -0.2266
     22 C         142.5278  137.9704  162.9379 C.ar    1  UNL1        0.1998
     23 N         143.6754  138.9113  162.7190 N.ar    1  UNL1       -0.2093
     24 C         143.5168  140.3714  163.0234 C.ar    1  UNL1        0.1307
     25 C         142.2107  140.8908  163.5467 C.ar    1  UNL1        0.0253
     26 C         142.0520  142.3510  163.8512 C.3     1  UNL1        0.0353
     27 N         144.6645  141.3121  162.8044 N.pl3   1  UNL1       -0.2899
     28 C         144.7765  142.0716  161.5159 C.3     1  UNL1        0.1136
     29 C         145.7003  141.4932  163.8742 C.3     1  UNL1        0.1136
@<TRIPOS>BOND
     1    17    18    1
     2    18     1    1
     3     1     2   ar
     4     2     3   ar
     5     3    10    1
     6    10    11    2
     7    10    12   am
     8    12    14    1
     9    14    15    1
    10    15    16    1
    11     3     4   ar
    12     4     5   ar
    13     5     6   ar
    14     6     7   ar
    15     7    19    1
    16    19    20    1
    17    20    21   ar
    18    21    22   ar
    19    22    23   ar
    20    23    24   ar
    21    24    27    1
    22    27    28    1
    23    27    29    1
    24    24    25   ar
    25    25    26    1
    26     7     8   ar
    27     8     9   ar
    28     9     1   ar
    29     8     4   ar
    30    25    20   ar
    31    12    13    1
@<TRIPOS>MOLECULE
*****
 29 31 0 0 0
SMALL
GASTEIGER

@<TRIPOS>ATOM
      1 C         139.0203  139.9727  163.9392 C.ar    1  UNL1        0.1404
      2 C         138.9490  139.6435  165.4008 C.ar    1  UNL1        0.0430
      3 C         139.9249  140.2620  166.3575 C.ar    1  UNL1        0.0754
      4 C         140.9720  141.2098  165.8524 C.ar    1  UNL1        0.1033
      5 N         142.0608  141.9681  166.5520 N.ar    1  UNL1       -0.2238
      6 C         142.8050  142.7660  165.5227 C.ar    1  UNL1        0.1788
      7 N         142.1762  142.5009  164.1869 N.ar    1  UNL1       -0.3031
      8 C         141.0433  141.5391  164.3907 C.ar    1  UNL1        0.0824
      9 C         140.0674  140.9205  163.4341 C.ar    1  UNL1        0.0556
     10 C         139.8535  139.9327  167.8192 C.2     1  UNL1        0.2475
     11 O         138.5735  139.4216  168.4111 O.2     1  UNL1       -0.2701
     12 N         141.0621  140.1146  168.6888 N.am    1  UNL1       -0.2982
     13 H         141.9021  140.4501  168.3003 H       1  UNL1        0.1498
     14 C         140.9906  139.7853  170.1505 C.3     1  UNL1        0.1280
     15 C         140.8466  140.8846  171.1608 C.3     1  UNL1        0.2144
     16 F         141.9670  141.8590  171.3738 F       1  UNL1       -0.2324
     17 C         138.3905  138.0742  162.2812 C.3     1  UNL1        0.2525
     18 O         138.0444  139.3542  162.9825 O.3     1  UNL1       -0.4714
     19 C         142.6050  143.0935  162.8774 C.3     1  UNL1        0.1531
     20 C         141.6865  144.0197  162.1367 C.ar    1  UNL1        0.0823
     21 N         140.7409  144.9031  162.8951 N.ar    1  UNL1       -0.2266
     22 C         139.8224  145.8293  162.1545 C.ar    1  UNL1        0.1998
     23 N         139.8496  145.8720  160.6553 N.ar    1  UNL1       -0.2093
     24 C         140.7953  144.9885  159.8969 C.ar    1  UNL1        0.1307
     25 C         141.7137  144.0624  160.6375 C.ar    1  UNL1        0.0253
     26 C         142.6594  143.1790  159.8791 C.3     1  UNL1        0.0353
     27 N         140.8224  145.0314  158.3977 N.pl3   1  UNL1       -0.2899
     28 C         139.8492  144.2091  157.6061 C.3     1  UNL1        0.1136
     29 C         141.8229  145.8965  157.6902 C.3     1  UNL1        0.1136
@<TRIPOS>BOND
     1    17    18    1
     2    18     1    1
     3     1     2   ar
     4     2     3   ar
     5     3    10    1
     6    10    11    2
     7    10    12   am
     8    12    14    1
     9    14    15    1
    10    15    16    1
    11     3     4   ar
    12     4     5   ar
    13     5     6   ar
    14     6     7   ar
    15     7    19    1
    16    19    20    1
    17    20    21   ar
    18    21    22   ar
    19    22    23   ar
    20    23    24   ar
    21    24    27    1
    22    27    28    1
    23    27    29    1
    24    24    25   ar
    25    25    26    1
    26     7     8   ar
    27     8     9   ar
    28     9     1   ar
    29     8     4   ar
    30    25    20   ar
    31    12    13    1
@<TRIPOS>MOLECULE
*****
 29 31 0 0 0
SMALL
GASTEIGER

@<TRIPOS>ATOM
      1 C         141.3329  139.6968  164.0922 C.ar    1  UNL1        0.1404
      2 C         141.6204  139.5165  165.5532 C.ar    1  UNL1        0.0430
      3 C         142.4638  140.5209  166.2813 C.ar    1  UNL1        0.0754
      4 C         143.0197  141.7055  165.5481 C.ar    1  UNL1        0.1033
      5 N         143.8769  142.8518  165.9968 N.ar    1  UNL1       -0.2238
      6 C         144.1192  143.7405  164.8129 C.ar    1  UNL1        0.1788
      7 N         143.4117  143.1435  163.6326 N.ar    1  UNL1       -0.3031
      8 C         142.7322  141.8858  164.0870 C.ar    1  UNL1        0.0824
      9 C         141.8888  140.8815  163.3590 C.ar    1  UNL1        0.0556
     10 C         142.7513  140.3405  167.7424 C.2     1  UNL1        0.2475
     11 O         143.0491  138.9742  168.2850 O.2     1  UNL1       -0.2701
     12 N         142.7409  141.5264  168.6608 N.am    1  UNL1       -0.2982
     13 H         142.5454  142.4232  168.3046 H       1  UNL1        0.1498
     14 C         143.0284  141.3460  170.1219 C.3     1  UNL1        0.1280
     15 C         141.9524  140.8512  171.0424 C.3     1  UNL1        0.2144
     16 F         140.6334  140.4061  170.4837 F       1  UNL1       -0.2324
     17 C         141.0416  137.3322  163.0559 C.3     1  UNL1        0.2525
     18 O         140.4895  138.6924  163.3642 O.3     1  UNL1       -0.4714
     19 C         143.3880  143.7056  162.2421 C.3     1  UNL1        0.1531
     20 C         142.1570  144.3951  161.7327 C.ar    1  UNL1        0.0823
     21 N         141.2962  145.1848  162.6735 N.ar    1  UNL1       -0.2266
     22 C         140.0652  145.8743  162.1643 C.ar    1  UNL1        0.1998
     23 N         139.6952  145.7740  160.7140 N.ar    1  UNL1       -0.2093
     24 C         140.5561  144.9842  159.7732 C.ar    1  UNL1        0.1307
     25 C         141.7870  144.2948  160.2826 C.ar    1  UNL1        0.0253
     26 C         142.6479  143.5050  159.3418 C.3     1  UNL1        0.0353
     27 N         140.1860  144.8840  158.3230 N.pl3   1  UNL1       -0.2899
     28 C         140.5770  145.9759  157.3719 C.3     1  UNL1        0.1136
     29 C         139.4248  143.6916  157.8240 C.3     1  UNL1        0.1136
@<TRIPOS>BOND
     1    17    18    1
     2    18     1    1
     3     1     2   ar
     4     2     3   ar
     5     3    10    1
     6    10    11    2
     7    10    12   am
     8    12    14    1
     9    14    15    1
    10    15    16    1
    11     3     4   ar
    12     4     5   ar
    13     5     6   ar
    14     6     7   ar
    15     7    19    1
    16    19    20    1
    17    20    21   ar
    18    21    22   ar
    19    22    23   ar
    20    23    24   ar
    21    24    27    1
    22    27    28    1
    23    27    29    1
    24    24    25   ar
    25    25    26    1
    26     7     8   ar
    27     8     9   ar
    28     9     1   ar
    29     8     4   ar
    30    25    20   ar
    31    12    13    1
@<TRIPOS>MOLECULE
*****
 29 31 0 0 0
SMALL
GASTEIGER

@<TRIPOS>ATOM
      1 C         143.8610  142.5909  164.0763 C.ar    1  UNL1        0.1404
      2 C         143.5524  142.8512  165.5208 C.ar    1  UNL1        0.0430
      3 C         142.9704  141.7614  166.3716 C.ar    1  UNL1        0.0754
      4 C         142.6971  140.4114  165.7777 C.ar    1  UNL1        0.1033
      5 N         142.1321  139.1522  166.3651 N.ar    1  UNL1       -0.2238
      6 C         142.0915  138.1137  165.2835 C.ar    1  UNL1        0.1788
      7 N         142.6314  138.7311  164.0276 N.ar    1  UNL1       -0.3031
      8 C         143.0057  140.1512  164.3330 C.ar    1  UNL1        0.0824
      9 C         143.5877  141.2409  163.4823 C.ar    1  UNL1        0.0556
     10 C         142.6618  142.0217  167.8163 C.2     1  UNL1        0.2475
     11 O         143.6754  142.7003  168.6892 O.2     1  UNL1       -0.2701
     12 N         141.3396  141.6035  168.3879 N.am    1  UNL1       -0.2982
     13 H         140.6743  141.1581  167.8150 H       1  UNL1        0.1498
     14 C         141.0310  141.8638  169.8326 C.3     1  UNL1        0.1280
     15 C         140.1975  143.0493  170.2197 C.3     1  UNL1        0.2144
     16 F         140.6775  144.4366  169.9115 F       1  UNL1       -0.2324
     17 C         143.8300  145.0496  163.2374 C.3     1  UNL1        0.2525
     18 O         144.4430  143.6807  163.2255 O.3     1  UNL1       -0.4714
     19 C         142.7724  138.0482  162.6995 C.3     1  UNL1        0.1531
     20 C         141.7149  138.2234  161.6501 C.ar    1  UNL1        0.0823
     21 N         140.2969  137.8309  161.9416 N.ar    1  UNL1       -0.2266
     22 C         139.2394  138.0060  160.8923 C.ar    1  UNL1        0.1998
     23 N         139.6001  138.5738  159.5515 N.ar    1  UNL1       -0.2093
     24 C         141.0182  138.9663  159.2601 C.ar    1  UNL1        0.1307
     25 C         142.0756  138.7911  160.3094 C.ar    1  UNL1        0.0253
     26 C         143.4937  139.1836  160.0180 C.3     1  UNL1        0.0353
     27 N         141.3788  139.5340  157.9193 N.pl3   1  UNL1       -0.2899
     28 C         141.8013  138.6206  156.8071 C.3     1  UNL1        0.1136
     29 C         141.3168  141.0152  157.6908 C.3     1  UNL1        0.1136
@<TRIPOS>BOND
     1    17    18    1
     2    18     1    1
     3     1     2   ar
     4     2     3   ar
     5     3    10    1
     6    10    11    2
     7    10    12   am
     8    12    14    1
     9    14    15    1
    10    15    16    1
    11     3     4   ar
    12     4     5   ar
    13     5     6   ar
    14     6     7   ar
    15     7    19    1
    16    19    20    1
    17    20    21   ar
    18    21    22   ar
    19    22    23   ar
    20    23    24   ar
    21    24    27    1
    22    27    28    1
    23    27    29    1
    24    24    25   ar
    25    25    26    1
    26     7     8   ar
    27     8     9   ar
    28     9     1   ar
    29     8     4   ar
    30    25    20   ar
    31    12    13    1
@<TRIPOS>MOLECULE
*****
 29 31 0 0 0
SMALL
GASTEIGER

@<TRIPOS>ATOM
      1 C         138.9061  139.0001  163.3404 C.ar    1  UNL1        0.1404
      2 C         138.4751  139.1882  164.7647 C.ar    1  UNL1        0.0430
      3 C         139.5037  139.3169  165.8490 C.ar    1  UNL1        0.0754
      4 C         140.9634  139.2576  165.5087 C.ar    1  UNL1        0.1033
      5 N         142.1964  139.3538  166.3574 N.ar    1  UNL1       -0.2238
      6 C         143.3896  139.2252  165.4575 C.ar    1  UNL1        0.1788
      7 N         142.8940  139.0495  164.0527 N.ar    1  UNL1       -0.3031
      8 C         141.3944  139.0695  164.0844 C.ar    1  UNL1        0.0824
      9 C         140.3658  138.9408  163.0002 C.ar    1  UNL1        0.0556
     10 C         139.0725  139.5050  167.2733 C.2     1  UNL1        0.2475
     11 O         137.8846  138.7572  167.8022 O.2     1  UNL1       -0.2701
     12 N         139.8292  140.4408  168.1686 N.am    1  UNL1       -0.2982
     13 H         140.6088  140.9316  167.8215 H       1  UNL1        0.1498
     14 C         139.3979  140.6288  169.5930 C.3     1  UNL1        0.1280
     15 C         139.7068  141.9112  170.3071 C.3     1  UNL1        0.2144
     16 F         139.9750  143.1610  169.5222 F       1  UNL1       -0.2324
     17 C         137.9026  139.8068  161.0839 C.3     1  UNL1        0.2525
     18 O         137.8775  138.8714  162.2562 O.3     1  UNL1       -0.4714
     19 C         143.7479  138.8830  162.8308 C.3     1  UNL1        0.1531
     20 C         144.0135  140.0570  161.9358 C.ar    1  UNL1        0.0823
     21 N         144.5840  141.3213  162.5066 N.ar    1  UNL1       -0.2266
     22 C         144.8496  142.4954  161.6116 C.ar    1  UNL1        0.1998
     23 N         144.5447  142.4050  160.1457 N.ar    1  UNL1       -0.2093
     24 C         143.9743  141.1406  159.5748 C.ar    1  UNL1        0.1307
     25 C         143.7087  139.9666  160.4699 C.ar    1  UNL1        0.0253
     26 C         143.1382  138.7022  159.8991 C.3     1  UNL1        0.0353
     27 N         143.6694  141.0503  158.1089 N.pl3   1  UNL1       -0.2899
     28 C         142.2946  141.3786  157.6071 C.3     1  UNL1        0.1136
     29 C         144.7396  140.6316  157.1448 C.3     1  UNL1        0.1136
@<TRIPOS>BOND
     1    17    18    1
     2    18     1    1
     3     1     2   ar
     4     2     3   ar
     5     3    10    1
     6    10    11    2
     7    10    12   am
     8    12    14    1
     9    14    15    1
    10    15    16    1
    11     3     4   ar
    12     4     5   ar
    13     5     6   ar
    14     6     7   ar
    15     7    19    1
    16    19    20    1
    17    20    21   ar
    18    21    22   ar
    19    22    23   ar
    20    23    24   ar
    21    24    27    1
    22    27    28    1
    23    27    29    1
    24    24    25   ar
    25    25    26    1
    26     7     8   ar
    27     8     9   ar
    28     9     1   ar
    29     8     4   ar
    30    25    20   ar
    31    12    13    1
@<TRIPOS>MOLECULE
*****
 29 31 0 0 0
SMALL
GASTEIGER

@<TRIPOS>ATOM
      1 C         143.0375  139.4443  164.5302 C.ar    1  UNL1        0.1404
      2 C         143.1841  139.5464  166.0194 C.ar    1  UNL1        0.0430
      3 C         141.9649  139.5813  166.8925 C.ar    1  UNL1        0.0754
      4 C         140.5990  139.5141  166.2762 C.ar    1  UNL1        0.1033
      5 N         139.2248  139.5279  166.8775 N.ar    1  UNL1       -0.2238
      6 C         138.2289  139.4343  165.7598 C.ar    1  UNL1        0.1788
      7 N         138.9875  139.3626  164.4677 N.ar    1  UNL1       -0.3031
      8 C         140.4523  139.4119  164.7869 C.ar    1  UNL1        0.0824
      9 C         141.6716  139.3771  163.9139 C.ar    1  UNL1        0.0556
     10 C         142.1116  139.6834  168.3819 C.2     1  UNL1        0.2475
     11 O         143.0536  138.7687  169.1071 O.2     1  UNL1       -0.2701
     12 N         141.3164  140.7001  169.1459 N.am    1  UNL1       -0.2982
     13 H         140.6981  141.3005  168.6699 H       1  UNL1        0.1498
     14 C         141.4632  140.8022  170.6352 C.3     1  UNL1        0.1280
     15 C         140.7544  141.8903  171.3859 C.3     1  UNL1        0.2144
     16 F         139.6644  142.6751  170.7180 F       1  UNL1       -0.2324
     17 C         145.2681  140.5142  163.7368 C.3     1  UNL1        0.2525
     18 O         144.2567  139.4094  163.6570 O.3     1  UNL1       -0.4714
     19 C         138.3868  139.2598  163.0971 C.3     1  UNL1        0.1531
     20 C         138.3283  140.4688  162.2112 C.ar    1  UNL1        0.0823
     21 N         137.9901  141.8092  162.7931 N.ar    1  UNL1       -0.2266
     22 C         137.9316  143.0183  161.9072 C.ar    1  UNL1        0.1998
     23 N         138.2113  142.8867  160.4393 N.ar    1  UNL1       -0.2093
     24 C         138.5495  141.5462  159.8575 C.ar    1  UNL1        0.1307
     25 C         138.6080  140.3373  160.7434 C.ar    1  UNL1        0.0253
     26 C         138.9462  138.9967  160.1615 C.3     1  UNL1        0.0353
     27 N         138.8291  141.4148  158.3896 N.pl3   1  UNL1       -0.2899
     28 C         137.7111  141.1094  157.4375 C.3     1  UNL1        0.1136
     29 C         140.2270  141.5887  157.8741 C.3     1  UNL1        0.1136
@<TRIPOS>BOND
     1    17    18    1
     2    18     1    1
     3     1     2   ar
     4     2     3   ar
     5     3    10    1
     6    10    11    2
     7    10    12   am
     8    12    14    1
     9    14    15    1
    10    15    16    1
    11     3     4   ar
    12     4     5   ar
    13     5     6   ar
    14     6     7   ar
    15     7    19    1
    16    19    20    1
    17    20    21   ar
    18    21    22   ar
    19    22    23   ar
    20    23    24   ar
    21    24    27    1
    22    27    28    1
    23    27    29    1
    24    24    25   ar
    25    25    26    1
    26     7     8   ar
    27     8     9   ar
    28     9     1   ar
    29     8     4   ar
    30    25    20   ar
    31    12    13    1
@<TRIPOS>MOLECULE
*****
 29 31 0 0 0
SMALL
GASTEIGER

@<TRIPOS>ATOM
      1 C         143.3740  143.1244  162.3332 C.ar    1  UNL1        0.1404
      2 C         143.1203  143.5297  160.9115 C.ar    1  UNL1        0.0430
      3 C         141.8025  144.1348  160.5278 C.ar    1  UNL1        0.0754
      4 C         140.7383  144.3346  161.5660 C.ar    1  UNL1        0.1033
      5 N         139.3520  144.9018  161.4860 N.ar    1  UNL1       -0.2238
      6 C         138.7490  144.8470  162.8583 C.ar    1  UNL1        0.1788
      7 N         139.7625  144.2459  163.7864 N.ar    1  UNL1       -0.3031
      8 C         140.9920  143.9292  162.9877 C.ar    1  UNL1        0.0824
      9 C         142.3099  143.3241  163.3713 C.ar    1  UNL1        0.0556
     10 C         141.5489  144.5402  159.1061 C.2     1  UNL1        0.2475
     11 O         142.6945  144.9418  158.2250 O.2     1  UNL1       -0.2701
     12 N         140.1497  144.5439  158.5654 N.am    1  UNL1       -0.2982
     13 H         139.3978  144.2803  159.1437 H       1  UNL1        0.1498
     14 C         139.8962  144.9492  157.1436 C.3     1  UNL1        0.1280
     15 C         140.0539  146.3833  156.7331 C.3     1  UNL1        0.2144
     16 F         138.8428  147.2505  156.5563 F       1  UNL1       -0.2324
     17 C         144.9258  141.0497  162.5277 C.3     1  UNL1        0.2525
     18 O         144.6919  142.5192  162.7169 O.3     1  UNL1       -0.4714
     19 C         139.5788  144.0041  165.2553 C.3     1  UNL1        0.1531
     20 C         139.9811  142.6893  165.8551 C.ar    1  UNL1        0.0823
     21 N         141.1958  142.6051  166.7311 N.ar    1  UNL1       -0.2266
     22 C         141.5982  141.2904  167.3308 C.ar    1  UNL1        0.1998
     23 N         140.7858  140.0600  167.0545 N.ar    1  UNL1       -0.2093
     24 C         139.5712  140.1444  166.1784 C.ar    1  UNL1        0.1307
     25 C         139.1688  141.4590  165.5788 C.ar    1  UNL1        0.0253
     26 C         137.9542  141.5434  164.7027 C.3     1  UNL1        0.0353
     27 N         138.7589  138.9139  165.9022 N.pl3   1  UNL1       -0.2899
     28 C         137.7095  138.4730  166.8789 C.3     1  UNL1        0.1136
     29 C         138.9962  138.1244  164.6490 C.3     1  UNL1        0.1136
@<TRIPOS>BOND
     1    17    18    1
     2    18     1    1
     3     1     2   ar
     4     2     3   ar
     5     3    10    1
     6    10    11    2
     7    10    12   am
     8    12    14    1
     9    14    15    1
    10    15    16    1
    11     3     4   ar
    12     4     5   ar
    13     5     6   ar
    14     6     7   ar
    15     7    19    1
    16    19    20    1
    17    20    21   ar
    18    21    22   ar
    19    22    23   ar
    20    23    24   ar
    21    24    27    1
    22    27    28    1
    23    27    29    1
    24    24    25   ar
    25    25    26    1
    26     7     8   ar
    27     8     9   ar
    28     9     1   ar
    29     8     4   ar
    30    25    20   ar
    31    12    13    1
@<TRIPOS>MOLECULE
*****
 29 31 0 0 0
SMALL
GASTEIGER

@<TRIPOS>ATOM
      1 C         143.4243  143.2730  162.6132 C.ar    1  UNL1        0.1404
      2 C         143.2245  143.6393  161.1725 C.ar    1  UNL1        0.0430
      3 C         141.8612  144.0232  160.6783 C.ar    1  UNL1        0.0754
      4 C         140.6978  144.0407  161.6250 C.ar    1  UNL1        0.1033
      5 N         139.2487  144.3743  161.4282 N.ar    1  UNL1       -0.2238
      6 C         138.5529  144.2141  162.7474 C.ar    1  UNL1        0.1788
      7 N         139.5720  143.7815  163.7594 N.ar    1  UNL1       -0.3031
      8 C         140.8976  143.6743  163.0657 C.ar    1  UNL1        0.0824
      9 C         142.2609  143.2904  163.5598 C.ar    1  UNL1        0.0556
     10 C         141.6614  144.3896  159.2375 C.2     1  UNL1        0.2475
     11 O         142.8422  144.4857  158.3174 O.2     1  UNL1       -0.2701
     12 N         140.2809  144.6599  158.7168 N.am    1  UNL1       -0.2982
     13 H         139.5059  144.5968  159.3207 H       1  UNL1        0.1498
     14 C         140.0812  145.0263  157.2760 C.3     1  UNL1        0.1280
     15 C         139.8696  146.4600  156.8891 C.3     1  UNL1        0.2144
     16 F         138.6920  146.8424  156.0423 F       1  UNL1       -0.2324
     17 C         145.2826  141.4846  162.9271 C.3     1  UNL1        0.2525
     18 O         144.7876  142.8891  163.1074 O.3     1  UNL1       -0.4714
     19 C         139.3112  143.5046  165.2104 C.3     1  UNL1        0.1531
     20 C         139.3092  142.0924  165.7160 C.ar    1  UNL1        0.0823
     21 N         138.4102  141.0711  165.0846 N.ar    1  UNL1       -0.2266
     22 C         138.4081  139.6588  165.5901 C.ar    1  UNL1        0.1998
     23 N         139.3052  139.2680  166.7270 N.ar    1  UNL1       -0.2093
     24 C         140.2042  140.2893  167.3584 C.ar    1  UNL1        0.1307
     25 C         140.2062  141.7015  166.8528 C.ar    1  UNL1        0.0253
     26 C         141.1052  142.7228  167.4842 C.3     1  UNL1        0.0353
     27 N         141.1012  139.8983  168.4953 N.pl3   1  UNL1       -0.2899
     28 C         142.4965  139.4215  168.2201 C.3     1  UNL1        0.1136
     29 C         140.6028  139.9841  169.9074 C.3     1  UNL1        0.1136
@<TRIPOS>BOND
     1    17    18    1
     2    18     1    1
     3     1     2   ar
     4     2     3   ar
     5     3    10    1
     6    10    11    2
     7    10    12   am
     8    12    14    1
     9    14    15    1
    10    15    16    1
    11     3     4   ar
    12     4     5   ar
    13     5     6   ar
    14     6     7   ar
    15     7    19    1
    16    19    20    1
    17    20    21   ar
    18    21    22   ar
    19    22    23   ar
    20    23    24   ar
    21    24    27    1
    22    27    28    1
    23    27    29    1
    24    24    25   ar
    25    25    26    1
    26     7     8   ar
    27     8     9   ar
    28     9     1   ar
    29     8     4   ar
    30    25    20   ar
    31    12    13    1
