@<TRIPOS>MOLECULE
*****
 39 42 0 0 0
SMALL
GASTEIGER

@<TRIPOS>ATOM
      1 C         144.3622  142.7788  158.2270 C.3     1  UNL1        0.1183
      2 N         144.1310  141.7550  159.2987 N.am    1  UNL1       -0.2425
      3 C         144.6155  142.0088  160.6954 C.3     1  UNL1        0.1183
      4 C         144.3843  140.9851  161.7670 C.3     1  UNL1        0.1146
      5 C         145.1069  142.0335  162.5599 C.3     1  UNL1        0.0252
      6 C         143.6686  139.7076  161.4420 C.3     1  UNL1        0.2040
      7 O         143.1841  139.4538  160.0454 O.3     1  UNL1       -0.4351
      8 C         143.4153  140.4775  158.9737 C.2     1  UNL1        0.4049
      9 O         142.9307  140.2237  157.5769 O.2     1  UNL1       -0.2262
     10 N         144.4041  140.3255  163.1141 N.am    1  UNL1       -0.2867
     11 C         143.5425  140.8556  164.2216 C.2     1  UNL1        0.3059
     12 O         142.6610  142.0454  163.9820 O.2     1  UNL1       -0.2524
     13 N         143.5624  140.1960  165.5687 N.am    1  UNL1       -0.2485
     14 H         144.9827  139.5446  163.2714 H       1  UNL1        0.1510
     15 H         144.1410  139.4151  165.7259 H       1  UNL1        0.1583
     16 C         142.7008  140.7262  166.6761 C.ar    1  UNL1        0.1664
     17 N         141.5134  140.0345  167.2776 N.ar    1  UNL1       -0.2283
     18 C         140.9539  140.9219  168.3497 C.ar    1  UNL1        0.0667
     19 C         141.7955  142.1621  168.4109 C.ar    1  UNL1        0.0528
     20 S         142.8751  142.0411  167.3765 S.2     1  UNL1       -0.0511
     21 C         139.7621  140.6219  169.2097 C.3     1  UNL1        0.0360
     22 C         140.3634  141.4264  170.3237 C.3     1  UNL1        0.0059
     23 C         139.1607  139.8173  168.0956 C.3     1  UNL1        0.0059
     24 C         138.5703  140.3218  170.0697 C.3     1  UNL1        0.0059
     25 C         143.4374  138.6838  162.5137 C.3     1  UNL1        0.1181
     26 N         142.0588  138.4751  163.0667 N.3     1  UNL1       -0.2696
     27 C         141.7646  137.2726  163.9139 C.3     1  UNL1        0.0722
     28 C         140.3860  137.0639  164.4668 C.3     1  UNL1        0.0174
     29 C         139.3015  138.0575  164.1726 C.3     1  UNL1        0.0031
     30 C         139.5956  139.2599  163.3254 C.3     1  UNL1        0.0204
     31 C         140.9743  139.4687  162.7724 C.3     1  UNL1        0.0725
     32 C         138.5111  140.2535  163.0312 C.3     1  UNL1        0.0277
     33 C         138.5124  141.5892  163.7137 C.ar    1  UNL1       -0.0220
     34 C         139.3042  141.7877  164.9722 C.ar    1  UNL1       -0.0020
     35 C         139.3055  143.1234  165.6547 C.ar    1  UNL1        0.0293
     36 C         138.5150  144.2607  165.0787 C.ar    1  UNL1        0.1401
     37 F         138.5163  145.5964  165.7612 F       1  UNL1       -0.2042
     38 C         137.7233  144.0623  163.8203 C.ar    1  UNL1        0.0293
     39 C         137.7220  142.7266  163.1377 C.ar    1  UNL1       -0.0020
@<TRIPOS>BOND
     1     1     2    1
     2     2     3    1
     3     3     4    1
     4     4     5    1
     5     4    10    1
     6    10    11   am
     7    11    12    2
     8    11    13   am
     9    13    16    1
    10    16    17   ar
    11    17    18   ar
    12    18    21    1
    13    21    22    1
    14    21    23    1
    15    21    24    1
    16    18    19   ar
    17    19    20   ar
    18     4     6    1
    19     6    25    1
    20    25    26    1
    21    26    27    1
    22    27    28    1
    23    28    29    1
    24    29    30    1
    25    30    32    1
    26    32    33    1
    27    33    34   ar
    28    34    35   ar
    29    35    36   ar
    30    36    37    1
    31    36    38   ar
    32    38    39   ar
    33    30    31    1
    34     6     7    1
    35     7     8    1
    36     8     9    2
    37     8     2   am
    38    20    16   ar
    39    31    26    1
    40    39    33   ar
    41    10    14    1
    42    13    15    1
@<TRIPOS>MOLECULE
*****
 39 42 0 0 0
SMALL
GASTEIGER

@<TRIPOS>ATOM
      1 C         141.5710  143.6098  155.9010 C.3     1  UNL1        0.1183
      2 N         140.7643  143.3289  157.1340 N.am    1  UNL1       -0.2425
      3 C         140.6367  141.9237  157.6428 C.3     1  UNL1        0.1183
      4 C         139.8299  141.6428  158.8758 C.3     1  UNL1        0.1146
      5 C         140.2836  140.2533  158.5392 C.3     1  UNL1        0.0252
      6 C         139.1508  142.7672  159.6000 C.3     1  UNL1        0.2040
      7 O         139.2784  144.1725  159.0911 O.3     1  UNL1       -0.4351
      8 C         140.0852  144.4533  157.8581 C.2     1  UNL1        0.4049
      9 O         140.2128  145.8587  157.3493 O.2     1  UNL1       -0.2262
     10 N         139.1807  140.8793  159.9919 N.am    1  UNL1       -0.2867
     11 C         140.0163  140.3291  161.1095 C.2     1  UNL1        0.3059
     12 O         141.5011  140.5423  161.1111 O.2     1  UNL1       -0.2524
     13 N         139.3670  139.5655  162.2255 N.am    1  UNL1       -0.2485
     14 H         138.2062  140.7394  159.9908 H       1  UNL1        0.1510
     15 H         138.3925  139.4256  162.2245 H       1  UNL1        0.1583
     16 C         140.2025  139.0153  163.3431 C.ar    1  UNL1        0.1664
     17 N         140.6793  139.7763  164.5447 N.ar    1  UNL1       -0.2283
     18 C         141.4795  138.8389  165.3996 C.ar    1  UNL1        0.0667
     19 C         141.4973  137.4984  164.7264 C.ar    1  UNL1        0.0528
     20 S         140.7081  137.6075  163.4555 S.2     1  UNL1       -0.0511
     21 C         142.1450  139.1816  166.6995 C.3     1  UNL1        0.0360
     22 C         143.3719  138.4339  166.2684 C.3     1  UNL1        0.0059
     23 C         140.9182  139.9293  167.1305 C.3     1  UNL1        0.0059
     24 C         142.8106  139.5243  167.9993 C.3     1  UNL1        0.0059
     25 C         138.3440  142.4864  160.8330 C.3     1  UNL1        0.1181
     26 N         138.6273  143.2353  162.1013 N.3     1  UNL1       -0.2696
     27 C         137.5165  143.5198  163.0684 C.3     1  UNL1        0.0722
     28 C         137.7998  144.2688  164.3368 C.3     1  UNL1        0.0174
     29 C         139.1939  144.7333  164.6381 C.3     1  UNL1        0.0031
     30 C         140.3046  144.4488  163.6711 C.3     1  UNL1        0.0204
     31 C         140.0214  143.6998  162.4027 C.3     1  UNL1        0.0725
     32 C         141.6987  144.9133  163.9724 C.3     1  UNL1        0.0277
     33 C         142.8291  143.9276  163.9958 C.ar    1  UNL1       -0.0220
     34 C         143.8265  143.9035  162.8756 C.ar    1  UNL1       -0.0020
     35 C         144.9569  142.9177  162.8990 C.ar    1  UNL1        0.0293
     36 C         145.0899  141.9561  164.0425 C.ar    1  UNL1        0.1401
     37 F         146.2203  140.9704  164.0659 F       1  UNL1       -0.2042
     38 C         144.0926  141.9802  165.1626 C.ar    1  UNL1        0.0293
     39 C         142.9621  142.9660  165.1393 C.ar    1  UNL1       -0.0020
@<TRIPOS>BOND
     1     1     2    1
     2     2     3    1
     3     3     4    1
     4     4     5    1
     5     4    10    1
     6    10    11   am
     7    11    12    2
     8    11    13   am
     9    13    16    1
    10    16    17   ar
    11    17    18   ar
    12    18    21    1
    13    21    22    1
    14    21    23    1
    15    21    24    1
    16    18    19   ar
    17    19    20   ar
    18     4     6    1
    19     6    25    1
    20    25    26    1
    21    26    27    1
    22    27    28    1
    23    28    29    1
    24    29    30    1
    25    30    32    1
    26    32    33    1
    27    33    34   ar
    28    34    35   ar
    29    35    36   ar
    30    36    37    1
    31    36    38   ar
    32    38    39   ar
    33    30    31    1
    34     6     7    1
    35     7     8    1
    36     8     9    2
    37     8     2   am
    38    20    16   ar
    39    31    26    1
    40    39    33   ar
    41    10    14    1
    42    13    15    1
@<TRIPOS>MOLECULE
*****
 39 42 0 0 0
SMALL
GASTEIGER

@<TRIPOS>ATOM
      1 C         139.8746  143.0577  170.6645 C.3     1  UNL1        0.1183
      2 N         140.3792  142.0737  169.6509 N.am    1  UNL1       -0.2425
      3 C         141.6083  142.3859  168.8498 C.3     1  UNL1        0.1183
      4 C         142.1129  141.4020  167.8363 C.3     1  UNL1        0.1146
      5 C         143.1361  142.4873  167.6776 C.3     1  UNL1        0.0252
      6 C         141.3884  140.1059  167.6238 C.3     1  UNL1        0.2040
      7 O         140.1593  139.7937  168.4249 O.3     1  UNL1       -0.4351
      8 C         139.6547  140.7777  169.4385 C.2     1  UNL1        0.4049
      9 O         138.4255  140.4654  170.2396 O.2     1  UNL1       -0.2262
     10 N         142.9729  140.7950  166.7676 N.am    1  UNL1       -0.2867
     11 C         142.9453  141.3531  165.3756 C.2     1  UNL1        0.3059
     12 O         142.0576  142.5182  165.0522 O.2     1  UNL1       -0.2524
     13 N         143.8053  140.7460  164.3070 N.am    1  UNL1       -0.2485
     14 H         143.5555  140.0303  166.9799 H       1  UNL1        0.1510
     15 H         144.3879  139.9813  164.5192 H       1  UNL1        0.1583
     16 C         143.7776  141.3042  162.9150 C.ar    1  UNL1        0.1664
     17 N         142.6251  141.2294  161.9579 N.ar    1  UNL1       -0.2283
     18 C         143.0327  141.9141  160.6870 C.ar    1  UNL1        0.0667
     19 C         144.4372  142.4121  160.8587 C.ar    1  UNL1        0.0528
     20 S         144.8976  142.0351  162.2357 S.2     1  UNL1       -0.0511
     21 C         142.1847  142.0729  159.4599 C.3     1  UNL1        0.0360
     22 C         142.6913  143.4747  159.2912 C.3     1  UNL1        0.0059
     23 C         141.6780  140.6712  159.6286 C.3     1  UNL1        0.0059
     24 C         141.3367  142.2318  158.2328 C.3     1  UNL1        0.0059
     25 C         141.8930  139.1219  166.6103 C.3     1  UNL1        0.1181
     26 N         141.0543  138.7803  165.4145 N.3     1  UNL1       -0.2696
     27 C         141.3378  137.5327  164.6313 C.3     1  UNL1        0.0722
     28 C         140.4992  137.1911  163.4355 C.3     1  UNL1        0.0174
     29 C         139.3771  138.0969  163.0228 C.3     1  UNL1        0.0031
     30 C         139.0936  139.3444  163.8059 C.3     1  UNL1        0.0204
     31 C         139.9322  139.6862  165.0018 C.3     1  UNL1        0.0725
     32 C         137.9715  140.2503  163.3933 C.3     1  UNL1        0.0277
     33 C         138.2471  141.6912  163.0805 C.ar    1  UNL1       -0.0220
     34 C         137.6905  142.7698  163.9620 C.ar    1  UNL1       -0.0020
     35 C         137.9661  144.2106  163.6492 C.ar    1  UNL1        0.0293
     36 C         138.7984  144.5730  162.4551 C.ar    1  UNL1        0.1401
     37 F         139.0740  146.0139  162.1423 F       1  UNL1       -0.2042
     38 C         139.3550  143.4945  161.5736 C.ar    1  UNL1        0.0293
     39 C         139.0794  142.0535  161.8864 C.ar    1  UNL1       -0.0020
@<TRIPOS>BOND
     1     1     2    1
     2     2     3    1
     3     3     4    1
     4     4     5    1
     5     4    10    1
     6    10    11   am
     7    11    12    2
     8    11    13   am
     9    13    16    1
    10    16    17   ar
    11    17    18   ar
    12    18    21    1
    13    21    22    1
    14    21    23    1
    15    21    24    1
    16    18    19   ar
    17    19    20   ar
    18     4     6    1
    19     6    25    1
    20    25    26    1
    21    26    27    1
    22    27    28    1
    23    28    29    1
    24    29    30    1
    25    30    32    1
    26    32    33    1
    27    33    34   ar
    28    34    35   ar
    29    35    36   ar
    30    36    37    1
    31    36    38   ar
    32    38    39   ar
    33    30    31    1
    34     6     7    1
    35     7     8    1
    36     8     9    2
    37     8     2   am
    38    20    16   ar
    39    31    26    1
    40    39    33   ar
    41    10    14    1
    42    13    15    1
@<TRIPOS>MOLECULE
*****
 39 42 0 0 0
SMALL
GASTEIGER

@<TRIPOS>ATOM
      1 C         139.9819  138.3729  158.0834 C.3     1  UNL1        0.1183
      2 N         139.3441  139.1733  159.1800 N.am    1  UNL1       -0.2425
      3 C         139.1423  138.5619  160.5348 C.3     1  UNL1        0.1183
      4 C         138.5046  139.3623  161.6314 C.3     1  UNL1        0.1146
      5 C         138.7485  138.0729  162.3580 C.3     1  UNL1        0.0252
      6 C         138.0685  140.7741  161.3733 C.3     1  UNL1        0.2040
      7 O         138.2703  141.3855  160.0185 O.3     1  UNL1       -0.4351
      8 C         138.9080  140.5851  158.9219 C.2     1  UNL1        0.4049
      9 O         139.1098  141.1966  157.5670 O.2     1  UNL1       -0.2262
     10 N         137.9515  139.7148  162.9804 N.am    1  UNL1       -0.2867
     11 C         138.8730  139.8545  164.1557 C.2     1  UNL1        0.3059
     12 O         140.3477  139.6416  163.9820 O.2     1  UNL1       -0.2524
     13 N         138.3198  140.2070  165.5047 N.am    1  UNL1       -0.2485
     14 H         136.9837  139.8546  163.0944 H       1  UNL1        0.1510
     15 H         137.3520  140.3467  165.6188 H       1  UNL1        0.1583
     16 C         139.2414  140.3466  166.6800 C.ar    1  UNL1        0.1664
     17 N         140.4471  141.2360  166.7542 N.ar    1  UNL1       -0.2283
     18 C         141.0700  141.0605  168.1074 C.ar    1  UNL1        0.0667
     19 C         140.2493  140.0627  168.8696 C.ar    1  UNL1        0.0528
     20 S         139.1191  139.6215  167.9874 S.2     1  UNL1       -0.0511
     21 C         142.2980  141.7600  168.6102 C.3     1  UNL1        0.0360
     22 C         141.8964  141.4503  170.0218 C.3     1  UNL1        0.0059
     23 C         142.6996  142.0696  167.1985 C.3     1  UNL1        0.0059
     24 C         143.5260  142.4594  169.1130 C.3     1  UNL1        0.0059
     25 C         137.4307  141.5745  162.4699 C.3     1  UNL1        0.1181
     26 N         138.1899  142.6919  163.1217 N.3     1  UNL1       -0.2696
     27 C         137.5933  143.4243  164.2870 C.3     1  UNL1        0.0722
     28 C         138.3525  144.5418  164.9388 C.3     1  UNL1        0.0174
     29 C         139.7083  144.9268  164.4255 C.3     1  UNL1        0.0031
     30 C         140.3050  144.1944  163.2604 C.3     1  UNL1        0.0204
     31 C         139.5458  143.0769  162.6085 C.3     1  UNL1        0.0725
     32 C         141.6608  144.5795  162.7471 C.3     1  UNL1        0.0277
     33 C         142.8557  143.7354  163.0784 C.ar    1  UNL1       -0.0220
     34 C         143.2303  142.5848  162.1918 C.ar    1  UNL1       -0.0020
     35 C         144.4251  141.7408  162.5231 C.ar    1  UNL1        0.0293
     36 C         145.2455  142.0472  163.7409 C.ar    1  UNL1        0.1401
     37 F         146.4404  141.2032  164.0722 F       1  UNL1       -0.2042
     38 C         144.8710  143.1978  164.6275 C.ar    1  UNL1        0.0293
     39 C         143.6760  144.0419  164.2962 C.ar    1  UNL1       -0.0020
@<TRIPOS>BOND
     1     1     2    1
     2     2     3    1
     3     3     4    1
     4     4     5    1
     5     4    10    1
     6    10    11   am
     7    11    12    2
     8    11    13   am
     9    13    16    1
    10    16    17   ar
    11    17    18   ar
    12    18    21    1
    13    21    22    1
    14    21    23    1
    15    21    24    1
    16    18    19   ar
    17    19    20   ar
    18     4     6    1
    19     6    25    1
    20    25    26    1
    21    26    27    1
    22    27    28    1
    23    28    29    1
    24    29    30    1
    25    30    32    1
    26    32    33    1
    27    33    34   ar
    28    34    35   ar
    29    35    36   ar
    30    36    37    1
    31    36    38   ar
    32    38    39   ar
    33    30    31    1
    34     6     7    1
    35     7     8    1
    36     8     9    2
    37     8     2   am
    38    20    16   ar
    39    31    26    1
    40    39    33   ar
    41    10    14    1
    42    13    15    1
@<TRIPOS>MOLECULE
*****
 39 42 0 0 0
SMALL
GASTEIGER

@<TRIPOS>ATOM
      1 C         142.9787  142.2100  155.1842 C.3     1  UNL1        0.1183
      2 N         143.4485  142.3512  156.6017 N.am    1  UNL1       -0.2425
      3 C         142.6474  143.1573  157.5806 C.3     1  UNL1        0.1183
      4 C         143.1173  143.2985  158.9981 C.3     1  UNL1        0.1146
      5 C         141.8576  144.1105  159.0592 C.3     1  UNL1        0.0252
      6 C         144.3883  142.6335  159.4367 C.3     1  UNL1        0.2040
      7 O         145.1894  141.8274  158.4578 O.3     1  UNL1       -0.4351
      8 C         144.7195  141.6862  157.0403 C.2     1  UNL1        0.4049
      9 O         145.5207  140.8800  156.0614 O.2     1  UNL1       -0.2262
     10 N         143.1496  143.7217  160.4368 N.am    1  UNL1       -0.2867
     11 C         142.0992  143.2288  161.3875 C.2     1  UNL1        0.3059
     12 O         141.0164  142.3126  160.8994 O.2     1  UNL1       -0.2524
     13 N         142.1316  143.6520  162.8262 N.am    1  UNL1       -0.2485
     14 H         143.8603  144.3230  160.7572 H       1  UNL1        0.1510
     15 H         142.8423  144.2534  163.1465 H       1  UNL1        0.1583
     16 C         141.0812  143.1591  163.7767 C.ar    1  UNL1        0.1664
     17 N         140.9009  141.7418  164.2337 N.ar    1  UNL1       -0.2283
     18 C         139.7350  141.7035  165.1766 C.ar    1  UNL1        0.0667
     19 C         139.1946  143.0972  165.3024 C.ar    1  UNL1        0.0528
     20 S         140.0267  143.9968  164.4372 S.2     1  UNL1       -0.0511
     21 C         139.2027  140.4854  165.8717 C.3     1  UNL1        0.0360
     22 C         140.3304  140.5557  166.8583 C.3     1  UNL1        0.0059
     23 C         138.0751  140.4151  164.8851 C.3     1  UNL1        0.0059
     24 C         138.6705  139.2674  166.5668 C.3     1  UNL1        0.0059
     25 C         144.8582  142.7747  160.8542 C.3     1  UNL1        0.1181
     26 N         144.7637  141.6104  161.7951 N.3     1  UNL1       -0.2696
     27 C         145.4216  141.6787  163.1415 C.3     1  UNL1        0.0722
     28 C         145.3271  140.5144  164.0824 C.3     1  UNL1        0.0174
     29 C         144.5747  139.2817  163.6771 C.3     1  UNL1        0.0031
     30 C         143.9168  139.2133  162.3308 C.3     1  UNL1        0.0204
     31 C         144.0113  140.3776  161.3898 C.3     1  UNL1        0.0725
     32 C         143.1644  137.9805  161.9255 C.3     1  UNL1        0.0277
     33 C         141.6659  138.0031  161.8629 C.ar    1  UNL1       -0.0220
     34 C         140.8590  137.6194  163.0679 C.ar    1  UNL1       -0.0020
     35 C         139.3605  137.6420  163.0053 C.ar    1  UNL1        0.0293
     36 C         138.6688  138.0483  161.7378 C.ar    1  UNL1        0.1401
     37 F         137.1703  138.0708  161.6752 F       1  UNL1       -0.2042
     38 C         139.4756  138.4320  160.5329 C.ar    1  UNL1        0.0293
     39 C         140.9742  138.4094  160.5954 C.ar    1  UNL1       -0.0020
@<TRIPOS>BOND
     1     1     2    1
     2     2     3    1
     3     3     4    1
     4     4     5    1
     5     4    10    1
     6    10    11   am
     7    11    12    2
     8    11    13   am
     9    13    16    1
    10    16    17   ar
    11    17    18   ar
    12    18    21    1
    13    21    22    1
    14    21    23    1
    15    21    24    1
    16    18    19   ar
    17    19    20   ar
    18     4     6    1
    19     6    25    1
    20    25    26    1
    21    26    27    1
    22    27    28    1
    23    28    29    1
    24    29    30    1
    25    30    32    1
    26    32    33    1
    27    33    34   ar
    28    34    35   ar
    29    35    36   ar
    30    36    37    1
    31    36    38   ar
    32    38    39   ar
    33    30    31    1
    34     6     7    1
    35     7     8    1
    36     8     9    2
    37     8     2   am
    38    20    16   ar
    39    31    26    1
    40    39    33   ar
    41    10    14    1
    42    13    15    1
@<TRIPOS>MOLECULE
*****
 39 42 0 0 0
SMALL
GASTEIGER

@<TRIPOS>ATOM
      1 C         139.0547  139.6998  157.5392 C.3     1  UNL1        0.1183
      2 N         140.0092  139.4998  158.6789 N.am    1  UNL1       -0.2425
      3 C         139.5303  138.8804  159.9584 C.3     1  UNL1        0.1183
      4 C         140.4848  138.6805  161.0981 C.3     1  UNL1        0.1146
      5 C         139.2318  138.1246  161.7071 C.3     1  UNL1        0.0252
      6 C         141.9182  139.0998  160.9584 C.3     1  UNL1        0.2040
      7 O         142.3971  139.7191  159.6789 O.3     1  UNL1       -0.4351
      8 C         141.4426  139.9191  158.5392 C.2     1  UNL1        0.4049
      9 O         141.9215  140.5385  157.2597 O.2     1  UNL1       -0.2262
     10 N         141.0041  138.2874  162.4493 N.am    1  UNL1       -0.2867
     11 C         140.6462  139.1025  163.6566 C.2     1  UNL1        0.3059
     12 O         139.7690  140.3107  163.5127 O.2     1  UNL1       -0.2524
     13 N         141.1655  138.7093  165.0079 N.am    1  UNL1       -0.2485
     14 H         141.5798  137.4944  162.5438 H       1  UNL1        0.1510
     15 H         141.7412  137.9163  165.1024 H       1  UNL1        0.1583
     16 C         140.8076  139.5245  166.2151 C.ar    1  UNL1        0.1664
     17 N         141.6933  140.5238  166.8984 N.ar    1  UNL1       -0.2283
     18 C         140.9343  141.1004  168.0566 C.ar    1  UNL1        0.0667
     19 C         139.5794  140.4574  168.0891 C.ar    1  UNL1        0.0528
     20 S         139.5011  139.4834  166.9510 S.2     1  UNL1       -0.0511
     21 C         141.4411  142.1379  169.0141 C.3     1  UNL1        0.0360
     22 C         140.1210  142.1254  169.7263 C.3     1  UNL1        0.0059
     23 C         142.7612  142.1503  168.3020 C.3     1  UNL1        0.0059
     24 C         141.9479  143.1753  169.9717 C.3     1  UNL1        0.0059
     25 C         142.8727  138.8998  162.0981 C.3     1  UNL1        0.1181
     26 N         143.5379  140.0834  162.7357 N.3     1  UNL1       -0.2696
     27 C         144.8667  139.9223  163.4128 C.3     1  UNL1        0.0722
     28 C         145.5320  141.1058  164.0504 C.3     1  UNL1        0.0174
     29 C         144.8684  142.4505  164.0111 C.3     1  UNL1        0.0031
     30 C         143.5396  142.6116  163.3341 C.3     1  UNL1        0.0204
     31 C         142.8743  141.4281  162.6964 C.3     1  UNL1        0.0725
     32 C         142.8761  143.9563  163.2948 C.3     1  UNL1        0.0277
     33 C         141.4685  144.1128  163.7889 C.ar    1  UNL1       -0.0220
     34 C         141.0495  143.4675  165.0766 C.ar    1  UNL1       -0.0020
     35 C         139.6420  143.6240  165.5707 C.ar    1  UNL1        0.0293
     36 C         138.6533  144.4258  164.7772 C.ar    1  UNL1        0.1401
     37 F         137.2457  144.5823  165.2713 F       1  UNL1       -0.2042
     38 C         139.0722  145.0711  163.4896 C.ar    1  UNL1        0.0293
     39 C         140.4799  144.9146  162.9954 C.ar    1  UNL1       -0.0020
@<TRIPOS>BOND
     1     1     2    1
     2     2     3    1
     3     3     4    1
     4     4     5    1
     5     4    10    1
     6    10    11   am
     7    11    12    2
     8    11    13   am
     9    13    16    1
    10    16    17   ar
    11    17    18   ar
    12    18    21    1
    13    21    22    1
    14    21    23    1
    15    21    24    1
    16    18    19   ar
    17    19    20   ar
    18     4     6    1
    19     6    25    1
    20    25    26    1
    21    26    27    1
    22    27    28    1
    23    28    29    1
    24    29    30    1
    25    30    32    1
    26    32    33    1
    27    33    34   ar
    28    34    35   ar
    29    35    36   ar
    30    36    37    1
    31    36    38   ar
    32    38    39   ar
    33    30    31    1
    34     6     7    1
    35     7     8    1
    36     8     9    2
    37     8     2   am
    38    20    16   ar
    39    31    26    1
    40    39    33   ar
    41    10    14    1
    42    13    15    1
@<TRIPOS>MOLECULE
*****
 39 42 0 0 0
SMALL
GASTEIGER

@<TRIPOS>ATOM
      1 C         140.8782  141.4698  155.9009 C.3     1  UNL1        0.1183
      2 N         140.6673  142.3313  157.1106 N.am    1  UNL1       -0.2425
      3 C         141.8084  142.6042  158.0451 C.3     1  UNL1        0.1183
      4 C         141.5975  143.4656  159.2549 C.3     1  UNL1        0.1146
      5 C         143.0517  143.1365  159.4197 C.3     1  UNL1        0.0252
      6 C         140.2456  144.0542  159.5300 C.3     1  UNL1        0.2040
      7 O         139.1045  143.7813  158.5955 O.3     1  UNL1       -0.4351
      8 C         139.3154  142.9199  157.3858 C.2     1  UNL1        0.4049
      9 O         138.1742  142.6470  156.4512 O.2     1  UNL1       -0.2262
     10 N         141.8917  144.2127  160.5218 N.am    1  UNL1       -0.2867
     11 C         142.1015  143.4624  161.8036 C.2     1  UNL1        0.3059
     12 O         142.0170  141.9648  161.8185 O.2     1  UNL1       -0.2524
     13 N         142.3957  144.2097  163.0706 N.am    1  UNL1       -0.2485
     14 H         141.9472  145.1956  160.5121 H       1  UNL1        0.1510
     15 H         142.4512  145.1925  163.0609 H       1  UNL1        0.1583
     16 C         142.6054  143.4593  164.3523 C.ar    1  UNL1        0.1664
     17 N         141.5471  142.7436  165.1383 N.ar    1  UNL1       -0.2283
     18 C         142.1977  142.1347  166.3449 C.ar    1  UNL1        0.0667
     19 C         143.6584  142.4741  166.3047 C.ar    1  UNL1        0.0528
     20 S         143.9103  143.2927  165.0732 S.2     1  UNL1       -0.0511
     21 C         141.5089  141.3282  167.4055 C.3     1  UNL1        0.0360
     22 C         142.6253  140.3271  167.3694 C.3     1  UNL1        0.0059
     23 C         140.3924  142.3293  167.4417 C.3     1  UNL1        0.0059
     24 C         140.8200  140.5216  168.4661 C.3     1  UNL1        0.0059
     25 C         140.0347  144.9156  160.7398 C.3     1  UNL1        0.1181
     26 N         139.2981  144.3724  161.9282 N.3     1  UNL1       -0.2696
     27 C         139.0813  145.2362  163.1353 C.3     1  UNL1        0.0722
     28 C         138.3447  144.6929  164.3236 C.3     1  UNL1        0.0174
     29 C         137.8249  143.2860  164.3050 C.3     1  UNL1        0.0031
     30 C         138.0417  142.4223  163.0980 C.3     1  UNL1        0.0204
     31 C         138.7784  142.9655  161.9095 C.3     1  UNL1        0.0725
     32 C         137.5220  141.0153  163.0794 C.3     1  UNL1        0.0277
     33 C         138.4143  139.8806  163.4869 C.ar    1  UNL1       -0.0220
     34 C         138.7435  138.7954  162.5051 C.ar    1  UNL1       -0.0020
     35 C         139.6359  137.6607  162.9126 C.ar    1  UNL1        0.0293
     36 C         140.1991  137.6112  164.3020 C.ar    1  UNL1        0.1401
     37 F         141.0915  136.4765  164.7095 F       1  UNL1       -0.2042
     38 C         139.8700  138.6964  165.2838 C.ar    1  UNL1        0.0293
     39 C         138.9776  139.8312  164.8763 C.ar    1  UNL1       -0.0020
@<TRIPOS>BOND
     1     1     2    1
     2     2     3    1
     3     3     4    1
     4     4     5    1
     5     4    10    1
     6    10    11   am
     7    11    12    2
     8    11    13   am
     9    13    16    1
    10    16    17   ar
    11    17    18   ar
    12    18    21    1
    13    21    22    1
    14    21    23    1
    15    21    24    1
    16    18    19   ar
    17    19    20   ar
    18     4     6    1
    19     6    25    1
    20    25    26    1
    21    26    27    1
    22    27    28    1
    23    28    29    1
    24    29    30    1
    25    30    32    1
    26    32    33    1
    27    33    34   ar
    28    34    35   ar
    29    35    36   ar
    30    36    37    1
    31    36    38   ar
    32    38    39   ar
    33    30    31    1
    34     6     7    1
    35     7     8    1
    36     8     9    2
    37     8     2   am
    38    20    16   ar
    39    31    26    1
    40    39    33   ar
    41    10    14    1
    42    13    15    1
@<TRIPOS>MOLECULE
*****
 39 42 0 0 0
SMALL
GASTEIGER

@<TRIPOS>ATOM
      1 C         137.9967  145.0242  155.0719 C.3     1  UNL1        0.1183
      2 N         138.9720  144.6622  156.1525 N.am    1  UNL1       -0.2425
      3 C         139.0880  143.2392  156.6122 C.3     1  UNL1        0.1183
      4 C         140.0634  142.8772  157.6928 C.3     1  UNL1        0.1146
      5 C         139.4714  141.5276  157.4135 C.3     1  UNL1        0.0252
      6 C         140.9227  143.9383  158.3137 C.3     1  UNL1        0.2040
      7 O         140.8067  145.3614  157.8540 O.3     1  UNL1       -0.4351
      8 C         139.8314  145.7233  156.7734 C.2     1  UNL1        0.4049
      9 O         139.7154  147.1465  156.3137 O.2     1  UNL1       -0.2262
     10 N         140.8331  142.0465  158.6763 N.am    1  UNL1       -0.2867
     11 C         140.1041  141.2436  159.7126 C.2     1  UNL1        0.3059
     12 O         138.6052  141.2714  159.7654 O.2     1  UNL1       -0.2524
     13 N         140.8739  140.4128  160.6962 N.am    1  UNL1       -0.2485
     14 H         141.8168  142.0282  158.6417 H       1  UNL1        0.1510
     15 H         141.8576  140.3945  160.6616 H       1  UNL1        0.1583
     16 C         140.1448  139.6100  161.7324 C.ar    1  UNL1        0.1664
     17 N         139.8342  140.0512  163.1320 N.ar    1  UNL1       -0.2283
     18 C         139.0958  138.9389  163.8157 C.ar    1  UNL1        0.0667
     19 C         138.9499  137.8101  162.8386 C.ar    1  UNL1        0.0528
     20 S         139.5983  138.2249  161.5510 S.2     1  UNL1       -0.0511
     21 C         138.5916  138.9529  165.2284 C.3     1  UNL1        0.0360
     22 C         138.3737  140.4341  165.1360 C.3     1  UNL1        0.0059
     23 C         138.8096  137.4717  165.3208 C.3     1  UNL1        0.0059
     24 C         138.0875  138.9669  166.6410 C.3     1  UNL1        0.0059
     25 C         141.8981  143.5763  159.3943 C.3     1  UNL1        0.1181
     26 N         141.6991  144.0935  160.7882 N.3     1  UNL1       -0.2696
     27 C         140.6291  145.1073  161.0664 C.3     1  UNL1        0.0722
     28 C         140.4302  145.6244  162.4603 C.3     1  UNL1        0.0174
     29 C         141.3012  145.1277  163.5760 C.3     1  UNL1        0.0031
     30 C         142.3711  144.1140  163.2978 C.3     1  UNL1        0.0204
     31 C         142.5701  143.5968  161.9038 C.3     1  UNL1        0.0725
     32 C         143.2421  143.6173  164.4134 C.3     1  UNL1        0.0277
     33 C         143.2240  142.1654  164.7896 C.ar    1  UNL1       -0.0220
     34 C         144.3204  141.2554  164.3207 C.ar    1  UNL1       -0.0020
     35 C         144.3023  139.8035  164.6969 C.ar    1  UNL1        0.0293
     36 C         143.1878  139.2615  165.5420 C.ar    1  UNL1        0.1401
     37 F         143.1697  137.8096  165.9182 F       1  UNL1       -0.2042
     38 C         142.0915  140.1715  166.0110 C.ar    1  UNL1        0.0293
     39 C         142.1096  141.6235  165.6348 C.ar    1  UNL1       -0.0020
@<TRIPOS>BOND
     1     1     2    1
     2     2     3    1
     3     3     4    1
     4     4     5    1
     5     4    10    1
     6    10    11   am
     7    11    12    2
     8    11    13   am
     9    13    16    1
    10    16    17   ar
    11    17    18   ar
    12    18    21    1
    13    21    22    1
    14    21    23    1
    15    21    24    1
    16    18    19   ar
    17    19    20   ar
    18     4     6    1
    19     6    25    1
    20    25    26    1
    21    26    27    1
    22    27    28    1
    23    28    29    1
    24    29    30    1
    25    30    32    1
    26    32    33    1
    27    33    34   ar
    28    34    35   ar
    29    35    36   ar
    30    36    37    1
    31    36    38   ar
    32    38    39   ar
    33    30    31    1
    34     6     7    1
    35     7     8    1
    36     8     9    2
    37     8     2   am
    38    20    16   ar
    39    31    26    1
    40    39    33   ar
    41    10    14    1
    42    13    15    1
@<TRIPOS>MOLECULE
*****
 39 42 0 0 0
SMALL
GASTEIGER

@<TRIPOS>ATOM
      1 C         138.3573  139.7009  155.5161 C.3     1  UNL1        0.1183
      2 N         138.8514  140.7092  156.5107 N.am    1  UNL1       -0.2425
      3 C         140.2300  140.5805  157.0875 C.3     1  UNL1        0.1183
      4 C         140.7241  141.5888  158.0821 C.3     1  UNL1        0.1146
      5 C         141.9251  140.6940  157.9997 C.3     1  UNL1        0.0252
      6 C         139.8395  142.7258  158.4999 C.3     1  UNL1        0.2040
      7 O         138.4609  142.8545  157.9231 O.3     1  UNL1       -0.4351
      8 C         137.9668  141.8462  156.9285 C.2     1  UNL1        0.4049
      9 O         136.5881  141.9750  156.3517 O.2     1  UNL1       -0.2262
     10 N         141.6353  142.2863  159.0480 N.am    1  UNL1       -0.2867
     11 C         142.0884  141.5831  160.2931 C.2     1  UNL1        0.3059
     12 O         141.6301  140.1823  160.5723 O.2     1  UNL1       -0.2524
     13 N         142.9996  142.2807  161.2591 N.am    1  UNL1       -0.2485
     14 H         141.9361  143.2056  158.8648 H       1  UNL1        0.1510
     15 H         143.3004  143.2000  161.0759 H       1  UNL1        0.1583
     16 C         143.4526  141.5775  162.5042 C.ar    1  UNL1        0.1664
     17 N         142.5831  141.1882  163.6628 N.ar    1  UNL1       -0.2283
     18 C         143.4476  140.5101  164.6840 C.ar    1  UNL1        0.0667
     19 C         144.8516  140.4803  164.1565 C.ar    1  UNL1        0.0528
     20 S         144.8546  141.1400  162.8093 S.2     1  UNL1       -0.0511
     21 C         142.9888  139.9587  166.0014 C.3     1  UNL1        0.0360
     22 C         143.1018  138.5653  165.4575 C.3     1  UNL1        0.0059
     23 C         142.8758  141.3520  166.5453 C.3     1  UNL1        0.0059
     24 C         142.5301  139.4072  167.3187 C.3     1  UNL1        0.0059
     25 C         140.3336  143.7341  159.4945 C.3     1  UNL1        0.1181
     26 N         139.6151  143.9154  160.7987 N.3     1  UNL1       -0.2696
     27 C         139.6984  145.2252  161.5251 C.3     1  UNL1        0.0722
     28 C         138.9800  145.4066  162.8292 C.3     1  UNL1        0.0174
     29 C         138.1782  144.2781  163.4071 C.3     1  UNL1        0.0031
     30 C         138.0950  142.9684  162.6808 C.3     1  UNL1        0.0204
     31 C         138.8134  142.7870  161.3765 C.3     1  UNL1        0.0725
     32 C         137.2932  141.8400  163.2586 C.3     1  UNL1        0.0277
     33 C         137.9830  140.5941  163.7295 C.ar    1  UNL1       -0.0220
     34 C         138.5382  140.5245  165.1213 C.ar    1  UNL1       -0.0020
     35 C         139.2281  139.2786  165.5922 C.ar    1  UNL1        0.0293
     36 C         139.3627  138.1022  164.6714 C.ar    1  UNL1        0.1401
     37 F         140.0525  136.8562  165.1423 F       1  UNL1       -0.2042
     38 C         138.8075  138.1717  163.2797 C.ar    1  UNL1        0.0293
     39 C         138.1177  139.4176  162.8087 C.ar    1  UNL1       -0.0020
@<TRIPOS>BOND
     1     1     2    1
     2     2     3    1
     3     3     4    1
     4     4     5    1
     5     4    10    1
     6    10    11   am
     7    11    12    2
     8    11    13   am
     9    13    16    1
    10    16    17   ar
    11    17    18   ar
    12    18    21    1
    13    21    22    1
    14    21    23    1
    15    21    24    1
    16    18    19   ar
    17    19    20   ar
    18     4     6    1
    19     6    25    1
    20    25    26    1
    21    26    27    1
    22    27    28    1
    23    28    29    1
    24    29    30    1
    25    30    32    1
    26    32    33    1
    27    33    34   ar
    28    34    35   ar
    29    35    36   ar
    30    36    37    1
    31    36    38   ar
    32    38    39   ar
    33    30    31    1
    34     6     7    1
    35     7     8    1
    36     8     9    2
    37     8     2   am
    38    20    16   ar
    39    31    26    1
    40    39    33   ar
    41    10    14    1
    42    13    15    1
