@<TRIPOS>MOLECULE
*****
 33 35 0 0 0
SMALL
GASTEIGER

@<TRIPOS>ATOM
      1 C         139.7736  138.4466  162.9602 C.2     1  UNL1        0.2223
      2 O         138.7354  137.3960  163.2215 O.2     1  UNL1       -0.2751
      3 N         140.0061  139.5373  163.9633 N.am    1  UNL1       -0.3004
      4 H         140.6875  140.2268  163.7917 H       1  UNL1        0.1497
      5 N         142.1912  138.3261  159.1666 N.pl3   1  UNL1       -0.2781
      6 C         140.7422  138.7111  159.1206 C.3     1  UNL1        0.0941
      7 C         139.9363  138.7513  160.3852 C.3     1  UNL1        0.0306
      8 C         140.5795  138.4064  161.6957 C.3     1  UNL1        0.0799
      9 C         142.0285  138.0214  161.7416 C.3     1  UNL1        0.0306
     10 C         142.8344  137.9813  160.4771 C.3     1  UNL1        0.0941
     11 C         143.9023  136.9720  155.8517 C.ar    1  UNL1        0.2204
     12 N         144.6088  138.2056  155.3732 N.ar    1  UNL1       -0.1988
     13 C         144.5095  139.4793  156.1591 C.ar    1  UNL1        0.1453
     14 C         145.2161  140.7130  155.6804 C.3     1  UNL1        0.0739
     15 N         143.7036  139.5195  157.4235 N.ar    1  UNL1       -0.1986
     16 C         142.9971  138.2860  157.9021 C.ar    1  UNL1        0.2236
     17 N         143.0964  137.0122  157.1162 N.ar    1  UNL1       -0.1809
     18 C         143.7239  134.3829  155.7312 C.3     1  UNL1        0.1108
     19 N         144.0016  135.6982  155.0659 N.pl3   1  UNL1       -0.3012
     20 H         144.2491  135.7255  154.1134 H       1  UNL1        0.1497
     21 C         139.2002  139.5775  165.2278 C.3     1  UNL1        0.1193
     22 C         139.5943  140.5047  166.3391 C.ar    1  UNL1        0.0317
     23 C         139.7111  139.9868  167.7421 C.ar    1  UNL1        0.0009
     24 C         140.1051  140.9140  168.8534 C.ar    1  UNL1        0.0066
     25 C         140.3824  142.3591  168.5617 C.ar    1  UNL1        0.0376
     26 BR        140.7764  143.2863  169.6730 Br      1  UNL1       -0.0489
     27 C         140.2655  142.8769  167.1588 C.ar    1  UNL1        0.0436
     28 C         139.8715  141.9496  166.0475 C.ar    1  UNL1        0.1449
     29 O         139.7546  142.4674  164.6446 O.3     1  UNL1       -0.4047
     30 C         138.7175  143.4981  164.3094 C.3     1  UNL1        0.5753
     31 F         137.6804  144.5287  163.9743 F       1  UNL1       -0.1328
     32 F         137.6340  142.5190  164.6519 F       1  UNL1       -0.1328
     33 F         139.8011  144.4771  163.9669 F       1  UNL1       -0.1328
@<TRIPOS>BOND
     1    18    19    1
     2    19    11    1
     3    11    12   ar
     4    12    13   ar
     5    13    14    1
     6    13    15   ar
     7    15    16   ar
     8    16     5    1
     9     5     6    1
    10     6     7    1
    11     7     8    1
    12     8     1    1
    13     1     2    2
    14     1     3   am
    15     3    21    1
    16    21    22    1
    17    22    23   ar
    18    23    24   ar
    19    24    25   ar
    20    25    26    1
    21    25    27   ar
    22    27    28   ar
    23    28    29    1
    24    29    30    1
    25    30    31    1
    26    30    32    1
    27    30    33    1
    28     8     9    1
    29     9    10    1
    30    16    17   ar
    31    17    11   ar
    32    10     5    1
    33    28    22   ar
    34    19    20    1
    35     3     4    1
@<TRIPOS>MOLECULE
*****
 33 35 0 0 0
SMALL
GASTEIGER

@<TRIPOS>ATOM
      1 C         140.5513  138.5902  162.4835 C.2     1  UNL1        0.2223
      2 O         140.8863  137.1283  162.4626 O.2     1  UNL1       -0.2751
      3 N         140.9392  139.4317  163.6631 N.am    1  UNL1       -0.3004
      4 H         140.7194  140.3912  163.6768 H       1  UNL1        0.1497
      5 N         138.3829  140.4518  159.0076 N.pl3   1  UNL1       -0.2781
      6 C         139.2654  139.2588  158.7890 C.3     1  UNL1        0.0941
      7 C         139.9882  138.6382  159.9477 C.3     1  UNL1        0.0306
      8 C         139.8285  139.2107  161.3249 C.3     1  UNL1        0.0799
      9 C         138.9460  140.4038  161.5435 C.3     1  UNL1        0.0306
     10 C         138.2231  141.0243  160.3848 C.3     1  UNL1        0.0941
     11 C         135.7326  141.0149  156.1078 C.ar    1  UNL1        0.2204
     12 N         136.2143  142.3134  155.5318 N.ar    1  UNL1       -0.1988
     13 C         137.4188  142.9914  156.1143 C.ar    1  UNL1        0.1453
     14 C         137.9005  144.2900  155.5383 C.3     1  UNL1        0.0739
     15 N         138.1417  142.3709  157.2729 N.ar    1  UNL1       -0.1986
     16 C         137.6600  141.0724  157.8490 C.ar    1  UNL1        0.2236
     17 N         136.4554  140.3944  157.2664 N.ar    1  UNL1       -0.1809
     18 C         133.1618  140.9155  155.7457 C.3     1  UNL1        0.1108
     19 N         134.5280  140.3369  155.5252 N.pl3   1  UNL1       -0.3012
     20 H         134.6342  139.5122  154.9981 H       1  UNL1        0.1497
     21 C         141.6621  138.8112  164.8218 C.3     1  UNL1        0.1193
     22 C         141.4897  139.3738  166.2015 C.ar    1  UNL1        0.0317
     23 C         142.6935  139.7442  167.0163 C.ar    1  UNL1        0.0009
     24 C         142.5211  140.3068  168.3960 C.ar    1  UNL1        0.0066
     25 C         141.1450  140.4991  168.9611 C.ar    1  UNL1        0.0376
     26 BR        140.9726  141.0617  170.3408 Br      1  UNL1       -0.0489
     27 C         139.9412  140.1287  168.1464 C.ar    1  UNL1        0.0436
     28 C         140.1136  139.5661  166.7666 C.ar    1  UNL1        0.1449
     29 O         138.9098  139.1957  165.9518 O.3     1  UNL1       -0.4047
     30 C         138.1476  137.9427  166.2668 C.3     1  UNL1        0.5753
     31 F         137.3853  136.6899  166.5818 F       1  UNL1       -0.1328
     32 F         137.2312  138.7249  167.1603 F       1  UNL1       -0.1328
     33 F         139.0640  137.1606  165.3734 F       1  UNL1       -0.1328
@<TRIPOS>BOND
     1    18    19    1
     2    19    11    1
     3    11    12   ar
     4    12    13   ar
     5    13    14    1
     6    13    15   ar
     7    15    16   ar
     8    16     5    1
     9     5     6    1
    10     6     7    1
    11     7     8    1
    12     8     1    1
    13     1     2    2
    14     1     3   am
    15     3    21    1
    16    21    22    1
    17    22    23   ar
    18    23    24   ar
    19    24    25   ar
    20    25    26    1
    21    25    27   ar
    22    27    28   ar
    23    28    29    1
    24    29    30    1
    25    30    31    1
    26    30    32    1
    27    30    33    1
    28     8     9    1
    29     9    10    1
    30    16    17   ar
    31    17    11   ar
    32    10     5    1
    33    28    22   ar
    34    19    20    1
    35     3     4    1
@<TRIPOS>MOLECULE
*****
 33 35 0 0 0
SMALL
GASTEIGER

@<TRIPOS>ATOM
      1 C         140.4623  138.2979  163.7946 C.2     1  UNL1        0.2223
      2 O         140.7526  137.1985  164.7729 O.2     1  UNL1       -0.2751
      3 N         139.5584  139.4296  164.1846 N.am    1  UNL1       -0.3004
      4 H         139.3679  140.1512  163.5425 H       1  UNL1        0.1497
      5 N         142.3030  138.2007  159.6895 N.pl3   1  UNL1       -0.2781
      6 C         140.8447  138.5126  159.8503 C.3     1  UNL1        0.0941
      7 C         140.2310  138.5450  161.2187 C.3     1  UNL1        0.0306
      8 C         141.0758  138.2655  162.4262 C.3     1  UNL1        0.0799
      9 C         142.5342  137.9536  162.2654 C.3     1  UNL1        0.0306
     10 C         143.1478  137.9212  160.8970 C.3     1  UNL1        0.0941
     11 C         144.0716  139.3952  156.3435 C.ar    1  UNL1        0.2204
     12 N         144.1438  138.1036  155.5844 N.ar    1  UNL1       -0.1988
     13 C         143.6025  136.8443  156.1936 C.ar    1  UNL1        0.1453
     14 C         143.6748  135.5525  155.4343 C.3     1  UNL1        0.0739
     15 N         142.9889  136.8766  157.5619 N.ar    1  UNL1       -0.1986
     16 C         142.9166  138.1683  158.3211 C.ar    1  UNL1        0.2236
     17 N         143.4580  139.4276  157.7119 N.ar    1  UNL1       -0.1809
     18 C         145.8563  141.2825  156.2907 C.3     1  UNL1        0.1108
     19 N         144.6129  140.6545  155.7343 N.pl3   1  UNL1       -0.3012
     20 H         144.1521  141.0689  154.9693 H       1  UNL1        0.1497
     21 C         138.9448  139.4621  165.5530 C.3     1  UNL1        0.1193
     22 C         139.4874  140.3931  166.5964 C.ar    1  UNL1        0.0317
     23 C         139.7121  139.9021  167.9959 C.ar    1  UNL1        0.0009
     24 C         140.2547  140.8331  169.0393 C.ar    1  UNL1        0.0066
     25 C         140.5728  142.2552  168.6832 C.ar    1  UNL1        0.0376
     26 BR        141.1154  143.1862  169.7266 Br      1  UNL1       -0.0489
     27 C         140.3482  142.7461  167.2838 C.ar    1  UNL1        0.0436
     28 C         139.8055  141.8150  166.2403 C.ar    1  UNL1        0.1449
     29 O         139.5809  142.3060  164.8409 O.3     1  UNL1       -0.4047
     30 C         138.5391  143.3509  164.5708 C.3     1  UNL1        0.5753
     31 F         137.4973  144.3958  164.3007 F       1  UNL1       -0.1328
     32 F         139.6108  144.3967  164.4831 F       1  UNL1       -0.1328
     33 F         137.4674  142.3051  164.6584 F       1  UNL1       -0.1328
@<TRIPOS>BOND
     1    18    19    1
     2    19    11    1
     3    11    12   ar
     4    12    13   ar
     5    13    14    1
     6    13    15   ar
     7    15    16   ar
     8    16     5    1
     9     5     6    1
    10     6     7    1
    11     7     8    1
    12     8     1    1
    13     1     2    2
    14     1     3   am
    15     3    21    1
    16    21    22    1
    17    22    23   ar
    18    23    24   ar
    19    24    25   ar
    20    25    26    1
    21    25    27   ar
    22    27    28   ar
    23    28    29    1
    24    29    30    1
    25    30    31    1
    26    30    32    1
    27    30    33    1
    28     8     9    1
    29     9    10    1
    30    16    17   ar
    31    17    11   ar
    32    10     5    1
    33    28    22   ar
    34    19    20    1
    35     3     4    1
@<TRIPOS>MOLECULE
*****
 33 35 0 0 0
SMALL
GASTEIGER

@<TRIPOS>ATOM
      1 C         138.9223  138.6436  164.6268 C.2     1  UNL1        0.2223
      2 O         139.1178  137.2401  165.1187 O.2     1  UNL1       -0.2751
      3 N         138.8598  139.7792  165.6047 N.am    1  UNL1       -0.3004
      4 H         138.7314  140.7004  165.2818 H       1  UNL1        0.1497
      5 N         138.5231  139.4473  160.2171 N.pl3   1  UNL1       -0.2781
      6 C         139.3266  138.2747  160.6960 C.3     1  UNL1        0.0941
      7 C         139.4597  138.0067  162.1660 C.3     1  UNL1        0.0306
      8 C         138.7893  138.9115  163.1569 C.3     1  UNL1        0.0799
      9 C         137.9858  140.0841  162.6779 C.3     1  UNL1        0.0306
     10 C         137.8527  140.3520  161.2081 C.3     1  UNL1        0.0941
     11 C         137.2336  140.9621  156.7831 C.ar    1  UNL1        0.2204
     12 N         138.1239  140.2511  155.8076 N.ar    1  UNL1       -0.1988
     13 C         139.1473  139.2722  156.3018 C.ar    1  UNL1        0.1453
     14 C         140.0376  138.5612  155.3262 C.3     1  UNL1        0.0739
     15 N         139.2804  139.0042  157.7717 N.ar    1  UNL1       -0.1986
     16 C         138.3901  139.7152  158.7472 C.ar    1  UNL1        0.2236
     17 N         137.3667  140.6941  158.2530 N.ar    1  UNL1       -0.1809
     18 C         136.6344  143.1109  155.4514 C.3     1  UNL1        0.1108
     19 N         136.2101  141.9410  156.2889 N.pl3   1  UNL1       -0.3012
     20 H         135.2600  141.8157  156.5142 H       1  UNL1        0.1497
     21 C         138.9928  139.5114  167.0746 C.3     1  UNL1        0.1193
     22 C         139.9061  140.3572  167.9115 C.ar    1  UNL1        0.0317
     23 C         139.5197  140.7150  169.3160 C.ar    1  UNL1        0.0009
     24 C         140.4330  141.5609  170.1528 C.ar    1  UNL1        0.0066
     25 C         141.7329  142.0490  169.5851 C.ar    1  UNL1        0.0376
     26 BR        142.6462  142.8948  170.4219 Br      1  UNL1       -0.0489
     27 C         142.1193  141.6912  168.1806 C.ar    1  UNL1        0.0436
     28 C         141.2059  140.8453  167.3438 C.ar    1  UNL1        0.1449
     29 O         141.5924  140.4875  165.9393 O.3     1  UNL1       -0.4047
     30 C         142.7873  139.6158  165.6891 C.3     1  UNL1        0.5753
     31 F         143.9821  138.7441  165.4390 F       1  UNL1       -0.1328
     32 F         141.9658  138.4002  166.0013 F       1  UNL1       -0.1328
     33 F         143.6087  140.8314  165.3769 F       1  UNL1       -0.1328
@<TRIPOS>BOND
     1    18    19    1
     2    19    11    1
     3    11    12   ar
     4    12    13   ar
     5    13    14    1
     6    13    15   ar
     7    15    16   ar
     8    16     5    1
     9     5     6    1
    10     6     7    1
    11     7     8    1
    12     8     1    1
    13     1     2    2
    14     1     3   am
    15     3    21    1
    16    21    22    1
    17    22    23   ar
    18    23    24   ar
    19    24    25   ar
    20    25    26    1
    21    25    27   ar
    22    27    28   ar
    23    28    29    1
    24    29    30    1
    25    30    31    1
    26    30    32    1
    27    30    33    1
    28     8     9    1
    29     9    10    1
    30    16    17   ar
    31    17    11   ar
    32    10     5    1
    33    28    22   ar
    34    19    20    1
    35     3     4    1
@<TRIPOS>MOLECULE
*****
 33 35 0 0 0
SMALL
GASTEIGER

@<TRIPOS>ATOM
      1 C         142.8469  143.6251  162.7032 C.2     1  UNL1        0.2223
      2 O         144.0541  144.3857  163.1661 O.2     1  UNL1       -0.2751
      3 N         142.3365  142.4665  163.5077 N.am    1  UNL1       -0.3004
      4 H         141.5441  141.9673  163.2039 H       1  UNL1        0.1497
      5 N         140.7565  144.8191  158.9013 N.pl3   1  UNL1       -0.2781
      6 C         140.3063  145.3867  160.2148 C.3     1  UNL1        0.0941
      7 C         141.0031  144.9887  161.4821 C.3     1  UNL1        0.0306
      8 C         142.1501  144.0231  161.4360 C.3     1  UNL1        0.0799
      9 C         142.6002  143.4555  160.1224 C.3     1  UNL1        0.0306
     10 C         141.9034  143.8535  158.8552 C.3     1  UNL1        0.0941
     11 C         139.4811  147.0203  155.8553 C.ar    1  UNL1        0.2204
     12 N         138.6662  146.0132  155.0994 N.ar    1  UNL1       -0.1988
     13 C         138.5480  144.6080  155.6108 C.ar    1  UNL1        0.1453
     14 C         137.7330  143.6008  154.8548 C.3     1  UNL1        0.0739
     15 N         139.2447  144.2100  156.8781 N.ar    1  UNL1       -0.1986
     16 C         140.0597  145.2171  157.6340 C.ar    1  UNL1        0.2236
     17 N         140.1779  146.6223  157.1226 N.ar    1  UNL1       -0.1809
     18 C         138.5916  149.4592  155.7514 C.3     1  UNL1        0.1108
     19 N         139.5993  148.4255  155.3439 N.pl3   1  UNL1       -0.3012
     20 H         140.3383  148.6694  154.7409 H       1  UNL1        0.1497
     21 C         143.0333  142.0684  164.7750 C.3     1  UNL1        0.1193
     22 C         142.3722  142.3051  166.1005 C.ar    1  UNL1        0.0317
     23 C         143.1615  142.1634  167.3682 C.ar    1  UNL1        0.0009
     24 C         142.5004  142.4000  168.6937 C.ar    1  UNL1        0.0066
     25 C         141.0501  142.7785  168.7515 C.ar    1  UNL1        0.0376
     26 BR        140.3890  143.0152  170.0770 Br      1  UNL1       -0.0489
     27 C         140.2608  142.9203  167.4839 C.ar    1  UNL1        0.0436
     28 C         140.9219  142.6836  166.1583 C.ar    1  UNL1        0.1449
     29 O         140.1327  142.8253  164.8907 O.3     1  UNL1       -0.4047
     30 C         138.9040  143.6855  164.8644 C.3     1  UNL1        0.5753
     31 F         137.6754  144.5456  164.8381 F       1  UNL1       -0.1328
     32 F         139.7640  144.9112  164.7753 F       1  UNL1       -0.1328
     33 F         138.0440  142.4598  164.9534 F       1  UNL1       -0.1328
@<TRIPOS>BOND
     1    18    19    1
     2    19    11    1
     3    11    12   ar
     4    12    13   ar
     5    13    14    1
     6    13    15   ar
     7    15    16   ar
     8    16     5    1
     9     5     6    1
    10     6     7    1
    11     7     8    1
    12     8     1    1
    13     1     2    2
    14     1     3   am
    15     3    21    1
    16    21    22    1
    17    22    23   ar
    18    23    24   ar
    19    24    25   ar
    20    25    26    1
    21    25    27   ar
    22    27    28   ar
    23    28    29    1
    24    29    30    1
    25    30    31    1
    26    30    32    1
    27    30    33    1
    28     8     9    1
    29     9    10    1
    30    16    17   ar
    31    17    11   ar
    32    10     5    1
    33    28    22   ar
    34    19    20    1
    35     3     4    1
@<TRIPOS>MOLECULE
*****
 33 35 0 0 0
SMALL
GASTEIGER

@<TRIPOS>ATOM
      1 C         144.1549  140.8467  163.4692 C.2     1  UNL1        0.2223
      2 O         145.6103  140.8322  163.8321 O.2     1  UNL1       -0.2751
      3 N         143.1721  141.5722  164.3396 N.am    1  UNL1       -0.3004
      4 H         142.2169  141.5817  164.1014 H       1  UNL1        0.1497
      5 N         142.7373  138.7140  159.7690 N.pl3   1  UNL1       -0.2781
      6 C         143.3523  137.9356  160.8940 C.3     1  UNL1        0.0941
      7 C         143.8249  138.6465  162.1275 C.3     1  UNL1        0.0306
      8 C         143.6824  140.1358  162.2358 C.3     1  UNL1        0.0799
      9 C         143.0674  140.9142  161.1106 C.3     1  UNL1        0.0306
     10 C         142.5949  140.2033  159.8772 C.3     1  UNL1        0.0941
     11 C         140.3891  137.4938  156.8114 C.ar    1  UNL1        0.2204
     12 N         141.3196  136.5814  156.0687 N.ar    1  UNL1       -0.1988
     13 C         142.7227  136.3799  156.5593 C.ar    1  UNL1        0.1453
     14 C         143.6532  135.4675  155.8165 C.3     1  UNL1        0.0739
     15 N         143.1953  137.0908  157.7927 N.ar    1  UNL1       -0.1986
     16 C         142.2648  138.0031  158.5355 C.ar    1  UNL1        0.2236
     17 N         140.8617  138.2046  158.0448 N.ar    1  UNL1       -0.1809
     18 C         138.6061  137.2613  154.9361 C.3     1  UNL1        0.1108
     19 N         138.9860  137.6953  156.3208 N.pl3   1  UNL1       -0.3012
     20 H         138.3145  138.1123  156.9076 H       1  UNL1        0.1497
     21 C         143.6446  142.2831  165.5731 C.3     1  UNL1        0.1193
     22 C         142.7415  142.3975  166.7652 C.ar    1  UNL1        0.0317
     23 C         143.3136  142.3207  168.1497 C.ar    1  UNL1        0.0009
     24 C         142.4105  142.4350  169.3418 C.ar    1  UNL1        0.0066
     25 C         140.9351  142.6263  169.1495 C.ar    1  UNL1        0.0376
     26 BR        140.0320  142.7406  170.3417 Br      1  UNL1       -0.0489
     27 C         140.3630  142.7031  167.7651 C.ar    1  UNL1        0.0436
     28 C         141.2662  142.5887  166.5729 C.ar    1  UNL1        0.1449
     29 O         140.6941  142.6656  165.1884 O.3     1  UNL1       -0.4047
     30 C         139.3377  143.2677  164.9698 C.3     1  UNL1        0.5753
     31 F         137.9813  143.8696  164.7511 F       1  UNL1       -0.1328
     32 F         138.7319  141.8956  164.9505 F       1  UNL1       -0.1328
     33 F         139.9435  144.6397  164.9890 F       1  UNL1       -0.1328
@<TRIPOS>BOND
     1    18    19    1
     2    19    11    1
     3    11    12   ar
     4    12    13   ar
     5    13    14    1
     6    13    15   ar
     7    15    16   ar
     8    16     5    1
     9     5     6    1
    10     6     7    1
    11     7     8    1
    12     8     1    1
    13     1     2    2
    14     1     3   am
    15     3    21    1
    16    21    22    1
    17    22    23   ar
    18    23    24   ar
    19    24    25   ar
    20    25    26    1
    21    25    27   ar
    22    27    28   ar
    23    28    29    1
    24    29    30    1
    25    30    31    1
    26    30    32    1
    27    30    33    1
    28     8     9    1
    29     9    10    1
    30    16    17   ar
    31    17    11   ar
    32    10     5    1
    33    28    22   ar
    34    19    20    1
    35     3     4    1
@<TRIPOS>MOLECULE
*****
 33 35 0 0 0
SMALL
GASTEIGER

@<TRIPOS>ATOM
      1 C         138.5268  141.4031  162.2224 C.2     1  UNL1        0.2223
      2 O         137.2308  142.1544  162.3012 O.2     1  UNL1       -0.2751
      3 N         139.5047  141.4736  163.3575 N.am    1  UNL1       -0.3004
      4 H         140.3553  140.9805  163.3058 H       1  UNL1        0.1497
      5 N         139.4806  138.9378  158.5807 N.pl3   1  UNL1       -0.2781
      6 C         139.8362  138.4278  159.9457 C.3     1  UNL1        0.0941
      7 C         139.5183  139.2496  161.1597 C.3     1  UNL1        0.0306
      8 C         138.8447  140.5813  161.0085 C.3     1  UNL1        0.0799
      9 C         138.4891  141.0912  159.6434 C.3     1  UNL1        0.0306
     10 C         138.8070  140.2695  158.4295 C.3     1  UNL1        0.0941
     11 C         141.3762  136.4813  156.1063 C.ar    1  UNL1        0.2204
     12 N         140.4344  136.4725  154.9389 N.ar    1  UNL1       -0.1988
     13 C         139.1747  137.2854  154.9854 C.ar    1  UNL1        0.1453
     14 C         138.2329  137.2766  153.8179 C.3     1  UNL1        0.0739
     15 N         138.8567  138.1072  156.1993 N.ar    1  UNL1       -0.1986
     16 C         139.7985  138.1160  157.3667 C.ar    1  UNL1        0.2236
     17 N         141.0583  137.3031  157.3202 N.ar    1  UNL1       -0.1809
     18 C         143.9136  136.2917  155.5812 C.3     1  UNL1        0.1108
     19 N         142.6360  135.6684  156.0598 N.pl3   1  UNL1       -0.3012
     20 H         142.6242  134.7257  156.3435 H       1  UNL1        0.1497
     21 C         139.1868  142.2954  164.5715 C.3     1  UNL1        0.1193
     22 C         139.6981  141.8742  165.9173 C.ar    1  UNL1        0.0317
     23 C         140.2508  142.8983  166.8637 C.ar    1  UNL1        0.0009
     24 C         140.7621  142.4771  168.2095 C.ar    1  UNL1        0.0066
     25 C         140.7208  141.0318  168.6088 C.ar    1  UNL1        0.0376
     26 BR        141.2321  140.6106  169.9546 Br      1  UNL1       -0.0489
     27 C         140.1681  140.0077  167.6623 C.ar    1  UNL1        0.0436
     28 C         139.6568  140.4290  166.3165 C.ar    1  UNL1        0.1449
     29 O         139.1042  139.4049  165.3700 O.3     1  UNL1       -0.4047
     30 C         138.4350  138.1734  165.9046 C.3     1  UNL1        0.5753
     31 F         137.7659  136.9419  166.4391 F       1  UNL1       -0.1328
     32 F         139.4711  137.3199  165.2352 F       1  UNL1       -0.1328
     33 F         137.3989  139.0268  166.5740 F       1  UNL1       -0.1328
@<TRIPOS>BOND
     1    18    19    1
     2    19    11    1
     3    11    12   ar
     4    12    13   ar
     5    13    14    1
     6    13    15   ar
     7    15    16   ar
     8    16     5    1
     9     5     6    1
    10     6     7    1
    11     7     8    1
    12     8     1    1
    13     1     2    2
    14     1     3   am
    15     3    21    1
    16    21    22    1
    17    22    23   ar
    18    23    24   ar
    19    24    25   ar
    20    25    26    1
    21    25    27   ar
    22    27    28   ar
    23    28    29    1
    24    29    30    1
    25    30    31    1
    26    30    32    1
    27    30    33    1
    28     8     9    1
    29     9    10    1
    30    16    17   ar
    31    17    11   ar
    32    10     5    1
    33    28    22   ar
    34    19    20    1
    35     3     4    1
@<TRIPOS>MOLECULE
*****
 33 35 0 0 0
SMALL
GASTEIGER

@<TRIPOS>ATOM
      1 C         140.4655  139.3397  162.7509 C.2     1  UNL1        0.2223
      2 O         139.5295  138.4725  163.5394 O.2     1  UNL1       -0.2751
      3 N         140.7749  140.7302  163.2207 N.am    1  UNL1       -0.3004
      4 H         141.3892  141.2994  162.7032 H       1  UNL1        0.1497
      5 N         142.3453  137.7700  158.9757 N.pl3   1  UNL1       -0.2781
      6 C         141.0893  138.5868  158.9046 C.3     1  UNL1        0.0941
      7 C         140.4626  139.1100  160.1630 C.3     1  UNL1        0.0306
      8 C         141.0921  138.8165  161.4925 C.3     1  UNL1        0.0799
      9 C         142.3482  137.9997  161.5636 C.3     1  UNL1        0.0306
     10 C         142.9748  137.4765  160.3052 C.3     1  UNL1        0.0941
     11 C         144.1737  137.6777  155.4546 C.ar    1  UNL1        0.2204
     12 N         144.2253  136.2003  155.2006 N.ar    1  UNL1       -0.1988
     13 C         143.6502  135.2461  156.2049 C.ar    1  UNL1        0.1453
     14 C         143.7018  133.7686  155.9509 C.3     1  UNL1        0.0739
     15 N         143.0235  135.7693  157.4633 N.ar    1  UNL1       -0.1986
     16 C         142.9720  137.2467  157.7173 C.ar    1  UNL1        0.2236
     17 N         143.5471  138.2009  156.7129 N.ar    1  UNL1       -0.1809
     18 C         143.8389  139.5086  153.6419 C.3     1  UNL1        0.1108
     19 N         144.7488  138.6319  154.4502 N.pl3   1  UNL1       -0.3012
     20 H         145.7236  138.6828  154.3215 H       1  UNL1        0.1497
     21 C         140.1483  141.2535  164.4792 C.3     1  UNL1        0.1193
     22 C         140.6551  140.7973  165.8152 C.ar    1  UNL1        0.0317
     23 C         139.6867  140.4747  166.9144 C.ar    1  UNL1        0.0009
     24 C         140.1935  140.0185  168.2504 C.ar    1  UNL1        0.0066
     25 C         141.6687  139.8848  168.4873 C.ar    1  UNL1        0.0376
     26 BR        142.1754  139.4286  169.8233 Br      1  UNL1       -0.0489
     27 C         142.6370  140.2074  167.3881 C.ar    1  UNL1        0.0436
     28 C         142.1302  140.6636  166.0520 C.ar    1  UNL1        0.1449
     29 O         143.0985  140.9862  164.9528 O.3     1  UNL1       -0.4047
     30 C         144.1955  140.0213  164.6126 C.3     1  UNL1        0.5753
     31 F         145.2923  139.0564  164.2723 F       1  UNL1       -0.1328
     32 F         143.2130  138.8888  164.6570 F       1  UNL1       -0.1328
     33 F         145.1780  141.1538  164.5681 F       1  UNL1       -0.1328
@<TRIPOS>BOND
     1    18    19    1
     2    19    11    1
     3    11    12   ar
     4    12    13   ar
     5    13    14    1
     6    13    15   ar
     7    15    16   ar
     8    16     5    1
     9     5     6    1
    10     6     7    1
    11     7     8    1
    12     8     1    1
    13     1     2    2
    14     1     3   am
    15     3    21    1
    16    21    22    1
    17    22    23   ar
    18    23    24   ar
    19    24    25   ar
    20    25    26    1
    21    25    27   ar
    22    27    28   ar
    23    28    29    1
    24    29    30    1
    25    30    31    1
    26    30    32    1
    27    30    33    1
    28     8     9    1
    29     9    10    1
    30    16    17   ar
    31    17    11   ar
    32    10     5    1
    33    28    22   ar
    34    19    20    1
    35     3     4    1
@<TRIPOS>MOLECULE
*****
 33 35 0 0 0
SMALL
GASTEIGER

@<TRIPOS>ATOM
      1 C         140.1212  139.2032  163.1209 C.2     1  UNL1        0.2223
      2 O         138.9951  138.3675  163.6534 O.2     1  UNL1       -0.2751
      3 N         140.5608  140.4302  163.8634 N.am    1  UNL1       -0.3004
      4 H         141.2999  140.9786  163.5139 H       1  UNL1        0.1497
      5 N         142.1804  138.0296  159.2957 N.pl3   1  UNL1       -0.2781
      6 C         142.8473  137.7754  160.6150 C.3     1  UNL1        0.0941
      7 C         142.1609  138.1666  161.8901 C.3     1  UNL1        0.0306
      8 C         140.8076  138.8120  161.8459 C.3     1  UNL1        0.0799
      9 C         140.1407  139.0663  160.5265 C.3     1  UNL1        0.0306
     10 C         140.8271  138.6751  159.2515 C.3     1  UNL1        0.0941
     11 C         143.7438  135.7975  156.4106 C.ar    1  UNL1        0.2204
     12 N         144.2396  136.8560  155.4705 N.ar    1  UNL1       -0.1988
     13 C         144.0491  138.3056  155.8055 C.ar    1  UNL1        0.1453
     14 C         144.5449  139.3641  154.8653 C.3     1  UNL1        0.0739
     15 N         143.3627  138.6968  157.0805 N.ar    1  UNL1       -0.1986
     16 C         142.8669  137.6384  158.0206 C.ar    1  UNL1        0.2236
     17 N         143.0574  136.1888  157.6857 N.ar    1  UNL1       -0.1809
     18 C         143.1348  133.3010  156.7931 C.3     1  UNL1        0.1108
     19 N         143.9343  134.3479  156.0757 N.pl3   1  UNL1       -0.3012
     20 H         144.5841  134.0835  155.3850 H       1  UNL1        0.1497
     21 C         139.8744  140.8214  165.1385 C.3     1  UNL1        0.1193
     22 C         140.6860  141.2151  166.3369 C.ar    1  UNL1        0.0317
     23 C         140.2969  142.4180  167.1441 C.ar    1  UNL1        0.0009
     24 C         141.1085  142.8117  168.3425 C.ar    1  UNL1        0.0066
     25 C         142.3093  142.0023  168.7339 C.ar    1  UNL1        0.0376
     26 BR        143.1209  142.3960  169.9323 Br      1  UNL1       -0.0489
     27 C         142.6984  140.7994  167.9267 C.ar    1  UNL1        0.0436
     28 C         141.8868  140.4057  166.7282 C.ar    1  UNL1        0.1449
     29 O         142.2759  139.2028  165.9211 O.3     1  UNL1       -0.4047
     30 C         143.6968  139.0276  165.4734 C.3     1  UNL1        0.5753
     31 F         145.1176  138.8525  165.0257 F       1  UNL1       -0.1328
     32 F         143.7774  137.7373  166.2339 F       1  UNL1       -0.1328
     33 F         143.6162  140.3180  164.7128 F       1  UNL1       -0.1328
@<TRIPOS>BOND
     1    18    19    1
     2    19    11    1
     3    11    12   ar
     4    12    13   ar
     5    13    14    1
     6    13    15   ar
     7    15    16   ar
     8    16     5    1
     9     5     6    1
    10     6     7    1
    11     7     8    1
    12     8     1    1
    13     1     2    2
    14     1     3   am
    15     3    21    1
    16    21    22    1
    17    22    23   ar
    18    23    24   ar
    19    24    25   ar
    20    25    26    1
    21    25    27   ar
    22    27    28   ar
    23    28    29    1
    24    29    30    1
    25    30    31    1
    26    30    32    1
    27    30    33    1
    28     8     9    1
    29     9    10    1
    30    16    17   ar
    31    17    11   ar
    32    10     5    1
    33    28    22   ar
    34    19    20    1
    35     3     4    1
