@<TRIPOS>MOLECULE
*****
 39 43 0 0 0
SMALL
GASTEIGER

@<TRIPOS>ATOM
      1 C         142.2899  138.0734  159.6353 C.2     1  UNL1        0.0386
      2 C         143.0191  137.6283  160.8683 C.2     1  UNL1        0.1000
      3 N         142.0683  137.7140  162.0253 N.2     1  UNL1       -0.2461
      4 C         140.7516  138.2121  161.5073 C.2     1  UNL1        0.0811
      5 C         139.4455  138.4920  162.1899 C.3     1  UNL1        0.1346
      6 C         138.2765  138.9940  161.3954 C.2     1  UNL1       -0.0009
      7 C         138.4135  139.2161  159.9183 C.2     1  UNL1       -0.0025
      8 C         139.7195  138.9361  159.2357 C.2     1  UNL1        0.0011
      9 C         140.8886  138.4341  160.0302 C.2     1  UNL1        0.0184
     10 C         143.7846  136.9558  156.1328 C.ar    1  UNL1        0.2208
     11 N         144.0055  138.2884  155.4806 N.ar    1  UNL1       -0.2115
     12 C         143.6545  139.5493  156.2134 C.ar    1  UNL1        0.1100
     13 C         143.0827  139.4776  157.5982 C.ar    1  UNL1        0.0715
     14 BR        142.7318  140.7386  158.3309 Br      1  UNL1       -0.0458
     15 C         142.8618  138.1450  158.2504 C.ar    1  UNL1        0.0934
     16 N         143.2127  136.8841  157.5177 N.ar    1  UNL1       -0.2130
     17 N         144.1355  135.6949  155.4001 N.pl3   1  UNL1       -0.2776
     18 H         144.9080  135.6789  154.7899 H       1  UNL1        0.1552
     19 C         143.4223  133.4958  156.7420 C.ar    1  UNL1        0.2571
     20 N         142.4083  132.4098  156.5362 N.ar    1  UNL1       -0.1301
     21 N         141.6689  132.7012  155.2640 N.ar    1  UNL1       -0.2432
     22 C         140.5660  131.8720  154.6756 C.3     1  UNL1        0.1539
     23 C         142.2258  133.9671  154.6836 C.ar    1  UNL1        0.1146
     24 C         143.3096  134.4584  155.5970 C.ar    1  UNL1        0.1248
     25 C         145.3803  132.5096  158.1362 C.3     1  UNL1        0.2543
     26 O         144.3807  133.6009  157.8910 O.3     1  UNL1       -0.4543
     27 N         139.3086  138.2699  163.6671 N.am    1  UNL1       -0.2964
     28 C         139.1706  139.4426  164.5922 C.2     1  UNL1        0.2374
     29 O         139.1695  140.8373  164.0401 O.2     1  UNL1       -0.2736
     30 H         139.3093  137.3545  164.0294 H       1  UNL1        0.1501
     31 C         139.0336  139.2206  166.0693 C.3     1  UNL1        0.1349
     32 C         137.8429  138.4859  166.6101 C.3     1  UNL1        0.0272
     33 N         140.0874  139.7332  167.0057 N.3     1  UNL1       -0.2641
     34 C         139.7037  140.2240  168.3702 C.3     1  UNL1        0.0900
     35 C         140.7574  140.7366  169.3066 C.3     1  UNL1        0.0897
     36 N         142.1948  140.7584  168.8785 N.3     1  UNL1       -0.2691
     37 C         143.2486  141.2710  169.8149 C.3     1  UNL1        0.0897
     38 C         142.5785  140.2676  167.5139 C.3     1  UNL1        0.0897
     39 C         141.5248  139.7550  166.5775 C.3     1  UNL1        0.0900
@<TRIPOS>BOND
     1    25    26    1
     2    26    19    1
     3    19    20   ar
     4    20    21   ar
     5    21    22    1
     6    21    23   ar
     7    23    24   ar
     8    24    17    1
     9    17    10    1
    10    10    11   ar
    11    11    12   ar
    12    12    13   ar
    13    13    14    1
    14    13    15   ar
    15    15     1    1
    16     1     2    2
    17     2     3    1
    18     3     4    2
    19     4     5    1
    20     5    27    1
    21    27    28   am
    22    28    29    2
    23    28    31    1
    24    31    32    1
    25    31    33    1
    26    33    34    1
    27    34    35    1
    28    35    36    1
    29    36    37    1
    30    36    38    1
    31    38    39    1
    32     5     6    1
    33     6     7    2
    34     7     8    1
    35     8     9    2
    36    15    16   ar
    37    24    19   ar
    38    16    10   ar
    39     9     1    1
    40     9     4    1
    41    39    33    1
    42    17    18    1
    43    27    30    1
@<TRIPOS>MOLECULE
*****
 39 43 0 0 0
SMALL
GASTEIGER

@<TRIPOS>ATOM
      1 C         142.3589  138.3875  159.5817 C.2     1  UNL1        0.0386
      2 C         143.0976  137.9281  160.8037 C.2     1  UNL1        0.1000
      3 N         142.1374  137.9361  161.9560 N.2     1  UNL1       -0.2461
      4 C         140.8052  138.4005  161.4462 C.2     1  UNL1        0.0811
      5 C         139.4852  138.6053  162.1286 C.3     1  UNL1        0.1346
      6 C         138.3022  139.0891  161.3435 C.2     1  UNL1       -0.0009
      7 C         138.4392  139.3681  159.8761 C.2     1  UNL1       -0.0025
      8 C         139.7592  139.1633  159.1937 C.2     1  UNL1        0.0011
      9 C         140.9422  138.6795  159.9787 C.2     1  UNL1        0.0184
     10 C         143.6876  137.4622  155.9584 C.ar    1  UNL1        0.2208
     11 N         144.0893  138.8149  155.4497 N.ar    1  UNL1       -0.2115
     12 C         143.9142  140.0252  156.3183 C.ar    1  UNL1        0.1100
     13 C         143.3374  139.8827  157.6957 C.ar    1  UNL1        0.0715
     14 BR        143.1623  141.0931  158.5643 Br      1  UNL1       -0.0458
     15 C         142.9357  138.5300  158.2044 C.ar    1  UNL1        0.0934
     16 N         143.1108  137.3198  157.3357 N.ar    1  UNL1       -0.2130
     17 N         143.8627  136.2520  155.0897 N.pl3   1  UNL1       -0.2776
     18 H         144.4285  136.3010  154.2854 H       1  UNL1        0.1552
     19 C         141.7336  134.6392  155.1962 C.ar    1  UNL1        0.2571
     20 N         141.4771  133.2539  155.7110 N.ar    1  UNL1       -0.1301
     21 N         142.7608  132.7255  156.2793 N.ar    1  UNL1       -0.2432
     22 C         142.9596  131.3754  156.9018 C.3     1  UNL1        0.1539
     23 C         143.8106  133.7842  156.1157 C.ar    1  UNL1        0.1146
     24 C         143.1759  134.9670  155.4463 C.ar    1  UNL1        0.1248
     25 C         139.9857  136.5539  155.3660 C.3     1  UNL1        0.2543
     26 O         140.7250  135.5389  154.5455 O.3     1  UNL1       -0.4543
     27 N         139.3483  138.3263  163.5961 N.am    1  UNL1       -0.2964
     28 C         139.1821  139.4610  164.5629 C.2     1  UNL1        0.2374
     29 O         139.1529  140.8747  164.0623 O.2     1  UNL1       -0.2736
     30 H         139.3676  137.3984  163.9246 H       1  UNL1        0.1501
     31 C         139.0452  139.1820  166.0303 C.3     1  UNL1        0.1349
     32 C         137.8709  138.3993  166.5386 C.3     1  UNL1        0.0272
     33 N         140.0827  139.6858  166.9896 N.3     1  UNL1       -0.2641
     34 C         141.5208  139.7578  166.5692 C.3     1  UNL1        0.0900
     35 C         142.5582  140.2616  167.5283 C.3     1  UNL1        0.0897
     36 N         142.1575  140.6933  168.9078 N.3     1  UNL1       -0.2691
     37 C         143.1949  141.1970  169.8671 C.3     1  UNL1        0.0897
     38 C         140.7194  140.6212  169.3282 C.3     1  UNL1        0.0897
     39 C         139.6820  140.1175  168.3691 C.3     1  UNL1        0.0900
@<TRIPOS>BOND
     1    25    26    1
     2    26    19    1
     3    19    20   ar
     4    20    21   ar
     5    21    22    1
     6    21    23   ar
     7    23    24   ar
     8    24    17    1
     9    17    10    1
    10    10    11   ar
    11    11    12   ar
    12    12    13   ar
    13    13    14    1
    14    13    15   ar
    15    15     1    1
    16     1     2    2
    17     2     3    1
    18     3     4    2
    19     4     5    1
    20     5    27    1
    21    27    28   am
    22    28    29    2
    23    28    31    1
    24    31    32    1
    25    31    33    1
    26    33    34    1
    27    34    35    1
    28    35    36    1
    29    36    37    1
    30    36    38    1
    31    38    39    1
    32     5     6    1
    33     6     7    2
    34     7     8    1
    35     8     9    2
    36    15    16   ar
    37    24    19   ar
    38    16    10   ar
    39     9     1    1
    40     9     4    1
    41    39    33    1
    42    17    18    1
    43    27    30    1
@<TRIPOS>MOLECULE
*****
 39 43 0 0 0
SMALL
GASTEIGER

@<TRIPOS>ATOM
      1 C         141.6769  138.7396  159.0339 C.2     1  UNL1        0.0386
      2 C         140.2514  138.5470  159.4593 C.2     1  UNL1        0.1000
      3 N         140.1326  138.9787  160.8909 N.2     1  UNL1       -0.2461
      4 C         141.4847  139.4381  161.3502 C.2     1  UNL1        0.0811
      5 C         141.9701  139.9719  162.6653 C.3     1  UNL1        0.1346
      6 C         143.4099  140.3579  162.8327 C.2     1  UNL1       -0.0009
      7 C         144.3642  140.2101  161.6849 C.2     1  UNL1       -0.0025
      8 C         143.8788  139.6763  160.3699 C.2     1  UNL1        0.0011
      9 C         142.4391  139.2903  160.2025 C.2     1  UNL1        0.0184
     10 C         143.4922  136.8204  156.0722 C.ar    1  UNL1        0.2208
     11 N         143.3695  137.8256  154.9657 N.ar    1  UNL1       -0.2115
     12 C         142.6826  139.1355  155.2153 C.ar    1  UNL1        0.1100
     13 C         142.1184  139.4402  156.5713 C.ar    1  UNL1        0.0715
     14 BR        141.4315  140.7501  156.8208 Br      1  UNL1       -0.0458
     15 C         142.2411  138.4350  157.6778 C.ar    1  UNL1        0.0934
     16 N         142.9280  137.1250  157.4283 N.ar    1  UNL1       -0.2130
     17 N         144.1792  135.5105  155.8227 N.pl3   1  UNL1       -0.2776
     18 H         145.1346  135.4930  155.5859 H       1  UNL1        0.1552
     19 C         143.5824  133.1858  156.9997 C.ar    1  UNL1        0.2571
     20 N         142.6129  132.0752  156.7233 N.ar    1  UNL1       -0.1301
     21 N         141.8417  132.4301  155.4867 N.ar    1  UNL1       -0.2432
     22 C         140.7664  131.6006  154.8498 C.3     1  UNL1        0.1539
     23 C         142.3345  133.7601  154.9988 C.ar    1  UNL1        0.1146
     24 C         143.4104  134.2273  155.9339 C.ar    1  UNL1        0.1248
     25 C         145.6667  132.2435  158.2317 C.3     1  UNL1        0.2543
     26 O         144.5536  133.2448  158.1414 O.3     1  UNL1       -0.4543
     27 N         141.0157  140.1196  163.8131 N.am    1  UNL1       -0.2964
     28 C         140.8226  138.9879  164.7784 C.2     1  UNL1        0.2374
     29 O         141.5840  137.7084  164.5960 O.2     1  UNL1       -0.2736
     30 H         140.5160  140.9594  163.9328 H       1  UNL1        0.1501
     31 C         139.8683  139.1356  165.9261 C.3     1  UNL1        0.1349
     32 C         138.4350  138.7226  165.7676 C.3     1  UNL1        0.0272
     33 N         140.3472  139.6963  167.2324 N.3     1  UNL1       -0.2641
     34 C         141.8160  139.8753  167.4783 C.3     1  UNL1        0.0900
     35 C         142.2949  140.4360  168.7845 C.3     1  UNL1        0.0897
     36 N         141.3050  140.8177  169.8448 N.3     1  UNL1       -0.2691
     37 C         141.7839  141.3784  171.1511 C.3     1  UNL1        0.0897
     38 C         139.8362  140.6386  169.5990 C.3     1  UNL1        0.0897
     39 C         139.3572  140.0780  168.2928 C.3     1  UNL1        0.0900
@<TRIPOS>BOND
     1    25    26    1
     2    26    19    1
     3    19    20   ar
     4    20    21   ar
     5    21    22    1
     6    21    23   ar
     7    23    24   ar
     8    24    17    1
     9    17    10    1
    10    10    11   ar
    11    11    12   ar
    12    12    13   ar
    13    13    14    1
    14    13    15   ar
    15    15     1    1
    16     1     2    2
    17     2     3    1
    18     3     4    2
    19     4     5    1
    20     5    27    1
    21    27    28   am
    22    28    29    2
    23    28    31    1
    24    31    32    1
    25    31    33    1
    26    33    34    1
    27    34    35    1
    28    35    36    1
    29    36    37    1
    30    36    38    1
    31    38    39    1
    32     5     6    1
    33     6     7    2
    34     7     8    1
    35     8     9    2
    36    15    16   ar
    37    24    19   ar
    38    16    10   ar
    39     9     1    1
    40     9     4    1
    41    39    33    1
    42    17    18    1
    43    27    30    1
@<TRIPOS>MOLECULE
*****
 39 43 0 0 0
SMALL
GASTEIGER

@<TRIPOS>ATOM
      1 C         138.9316  140.9083  160.0209 C.2     1  UNL1        0.0386
      2 C         138.4117  141.3407  161.3598 C.2     1  UNL1        0.1000
      3 N         139.2373  140.6687  162.4166 N.2     1  UNL1       -0.2461
      4 C         140.2674  139.8210  161.7308 C.2     1  UNL1        0.0811
      5 C         141.3531  138.9335  162.2633 C.3     1  UNL1        0.1346
      6 C         142.2498  138.1939  161.3152 C.2     1  UNL1       -0.0009
      7 C         142.0608  138.3420  159.8345 C.2     1  UNL1       -0.0025
      8 C         140.9752  139.2296  159.3020 C.2     1  UNL1        0.0011
      9 C         140.0785  139.9691  160.2501 C.2     1  UNL1        0.0184
     10 C         136.8598  140.9184  156.6360 C.ar    1  UNL1        0.2208
     11 N         137.3315  142.2015  156.0187 N.ar    1  UNL1       -0.2115
     12 C         138.3366  143.0535  156.7354 C.ar    1  UNL1        0.1100
     13 C         138.8700  142.6224  158.0695 C.ar    1  UNL1        0.0715
     14 BR        139.8751  143.4745  158.7862 Br      1  UNL1       -0.0458
     15 C         138.3983  141.3394  158.6868 C.ar    1  UNL1        0.0934
     16 N         137.3931  140.4873  157.9700 N.ar    1  UNL1       -0.2130
     17 N         135.8546  140.0664  155.9192 N.pl3   1  UNL1       -0.2776
     18 H         136.1560  139.3104  155.3652 H       1  UNL1        0.1552
     19 C         133.4920  139.9166  157.1605 C.ar    1  UNL1        0.2571
     20 N         132.1139  140.4407  156.8848 N.ar    1  UNL1       -0.1301
     21 N         132.1605  141.2142  155.6005 N.ar    1  UNL1       -0.2432
     22 C         131.0034  141.9113  154.9487 C.3     1  UNL1        0.1539
     23 C         133.5674  141.1681  155.0824 C.ar    1  UNL1        0.1146
     24 C         134.3904  140.3662  156.0466 C.ar    1  UNL1        0.1248
     25 C         133.0176  137.9720  158.8169 C.3     1  UNL1        0.2543
     26 O         133.9002  139.0883  158.3426 O.3     1  UNL1       -0.4543
     27 N         141.5420  138.7854  163.7440 N.am    1  UNL1       -0.2964
     28 C         142.6568  139.5139  164.4344 C.2     1  UNL1        0.2374
     29 O         143.5826  140.3904  163.6440 O.2     1  UNL1       -0.2736
     30 H         140.9344  138.2101  164.2627 H       1  UNL1        0.1501
     31 C         142.8457  139.3659  165.9150 C.3     1  UNL1        0.1349
     32 C         143.6165  138.2002  166.4599 C.3     1  UNL1        0.0272
     33 N         142.2639  140.3837  166.8508 N.3     1  UNL1       -0.2641
     34 C         141.3799  141.4726  166.3191 C.3     1  UNL1        0.0900
     35 C         140.7981  142.4904  167.2548 C.3     1  UNL1        0.0897
     36 N         141.1003  142.4193  168.7222 N.3     1  UNL1       -0.2691
     37 C         140.5185  143.4371  169.6580 C.3     1  UNL1        0.0897
     38 C         141.9844  141.3304  169.2540 C.3     1  UNL1        0.0897
     39 C         142.5662  140.3126  168.3183 C.3     1  UNL1        0.0900
@<TRIPOS>BOND
     1    25    26    1
     2    26    19    1
     3    19    20   ar
     4    20    21   ar
     5    21    22    1
     6    21    23   ar
     7    23    24   ar
     8    24    17    1
     9    17    10    1
    10    10    11   ar
    11    11    12   ar
    12    12    13   ar
    13    13    14    1
    14    13    15   ar
    15    15     1    1
    16     1     2    2
    17     2     3    1
    18     3     4    2
    19     4     5    1
    20     5    27    1
    21    27    28   am
    22    28    29    2
    23    28    31    1
    24    31    32    1
    25    31    33    1
    26    33    34    1
    27    34    35    1
    28    35    36    1
    29    36    37    1
    30    36    38    1
    31    38    39    1
    32     5     6    1
    33     6     7    2
    34     7     8    1
    35     8     9    2
    36    15    16   ar
    37    24    19   ar
    38    16    10   ar
    39     9     1    1
    40     9     4    1
    41    39    33    1
    42    17    18    1
    43    27    30    1
@<TRIPOS>MOLECULE
*****
 39 43 0 0 0
SMALL
GASTEIGER

@<TRIPOS>ATOM
      1 C         142.7021  139.4999  162.0132 C.2     1  UNL1        0.0386
      2 C         142.5002  138.0339  161.7680 C.2     1  UNL1        0.1000
      3 N         142.7579  137.7672  160.3146 N.2     1  UNL1       -0.2461
      4 C         143.1191  139.0684  159.6615 C.2     1  UNL1        0.0811
      5 C         143.4749  139.4165  158.2465 C.3     1  UNL1        0.1346
      6 C         143.7962  140.8354  157.8813 C.2     1  UNL1       -0.0009
      7 C         143.7617  141.9062  158.9311 C.2     1  UNL1       -0.0025
      8 C         143.4058  141.5582  160.3461 C.2     1  UNL1        0.0011
      9 C         143.0846  140.1393  160.7113 C.2     1  UNL1        0.0184
     10 C         141.1970  141.7735  164.8968 C.ar    1  UNL1        0.2208
     11 N         142.2411  141.6096  165.9612 N.ar    1  UNL1       -0.2115
     12 C         143.4388  140.7424  165.7096 C.ar    1  UNL1        0.1100
     13 C         143.5925  140.0392  164.3936 C.ar    1  UNL1        0.0715
     14 BR        144.7903  139.1720  164.1420 Br      1  UNL1       -0.0458
     15 C         142.5484  140.2031  163.3292 C.ar    1  UNL1        0.0934
     16 N         141.3506  141.0703  163.5808 N.ar    1  UNL1       -0.2130
     17 N         139.9992  142.6407  165.1485 N.pl3   1  UNL1       -0.2776
     18 H         139.5674  142.6390  166.0332 H       1  UNL1        0.1552
     19 C         138.1744  143.2962  163.3085 C.ar    1  UNL1        0.2571
     20 N         138.0306  144.4006  162.3037 N.ar    1  UNL1       -0.1301
     21 N         139.2266  145.2974  162.4263 N.ar    1  UNL1       -0.2432
     22 C         139.4929  146.5283  161.6114 C.3     1  UNL1        0.1539
     23 C         140.1096  144.7474  163.5068 C.ar    1  UNL1        0.1146
     24 C         139.4594  143.5105  164.0521 C.ar    1  UNL1        0.1248
     25 C         137.5993  140.7647  163.2050 C.3     1  UNL1        0.2543
     26 O         137.2037  142.1744  163.5307 O.3     1  UNL1       -0.4543
     27 N         143.5095  138.3456  157.1967 N.am    1  UNL1       -0.2964
     28 C         142.2302  137.7362  156.7047 C.2     1  UNL1        0.2374
     29 O         140.9164  138.1977  157.2625 O.2     1  UNL1       -0.2736
     30 H         144.3717  138.0427  156.8307 H       1  UNL1        0.1501
     31 C         142.2647  136.6653  155.6549 C.3     1  UNL1        0.1349
     32 C         142.1132  137.0287  154.2075 C.3     1  UNL1        0.0272
     33 N         142.4506  135.2309  156.0526 N.3     1  UNL1       -0.2641
     34 C         143.3683  134.8798  157.1859 C.3     1  UNL1        0.0900
     35 C         143.5543  133.4455  157.5836 C.3     1  UNL1        0.0897
     36 N         142.8225  132.3623  156.8479 N.3     1  UNL1       -0.2691
     37 C         143.0084  130.9279  157.2455 C.3     1  UNL1        0.0897
     38 C         141.9048  132.7135  155.7146 C.3     1  UNL1        0.0897
     39 C         141.7188  134.1478  155.3169 C.3     1  UNL1        0.0900
@<TRIPOS>BOND
     1    25    26    1
     2    26    19    1
     3    19    20   ar
     4    20    21   ar
     5    21    22    1
     6    21    23   ar
     7    23    24   ar
     8    24    17    1
     9    17    10    1
    10    10    11   ar
    11    11    12   ar
    12    12    13   ar
    13    13    14    1
    14    13    15   ar
    15    15     1    1
    16     1     2    2
    17     2     3    1
    18     3     4    2
    19     4     5    1
    20     5    27    1
    21    27    28   am
    22    28    29    2
    23    28    31    1
    24    31    32    1
    25    31    33    1
    26    33    34    1
    27    34    35    1
    28    35    36    1
    29    36    37    1
    30    36    38    1
    31    38    39    1
    32     5     6    1
    33     6     7    2
    34     7     8    1
    35     8     9    2
    36    15    16   ar
    37    24    19   ar
    38    16    10   ar
    39     9     1    1
    40     9     4    1
    41    39    33    1
    42    17    18    1
    43    27    30    1
@<TRIPOS>MOLECULE
*****
 39 43 0 0 0
SMALL
GASTEIGER

@<TRIPOS>ATOM
      1 C         140.7813  145.0778  157.8975 C.2     1  UNL1        0.0386
      2 C         141.5084  145.7073  159.0485 C.2     1  UNL1        0.1000
      3 N         141.1041  144.9882  160.3013 N.2     1  UNL1       -0.2461
      4 C         140.1271  143.9141  159.9244 C.2     1  UNL1        0.0811
      5 C         139.3934  142.8929  160.7421 C.3     1  UNL1        0.1346
      6 C         138.4602  141.9270  160.0742 C.2     1  UNL1       -0.0009
      7 C         138.2607  141.9823  158.5886 C.2     1  UNL1       -0.0025
      8 C         138.9944  143.0036  157.7709 C.2     1  UNL1        0.0011
      9 C         139.9276  143.9695  158.4388 C.2     1  UNL1        0.0184
     10 C         140.1807  147.0393  154.5002 C.ar    1  UNL1        0.2208
     11 N         141.1042  146.2993  153.5784 N.ar    1  UNL1       -0.2115
     12 C         141.9201  145.1521  154.0964 C.ar    1  UNL1        0.1100
     13 C         141.8124  144.7450  155.5361 C.ar    1  UNL1        0.0715
     14 BR        142.6283  143.5977  156.0540 Br      1  UNL1       -0.0458
     15 C         140.8889  145.4849  156.4578 C.ar    1  UNL1        0.0934
     16 N         140.0731  146.6321  155.9398 N.ar    1  UNL1       -0.2130
     17 N         139.3649  148.1865  153.9822 N.pl3   1  UNL1       -0.2776
     18 H         138.5343  148.0139  153.4826 H       1  UNL1        0.1552
     19 C         139.1775  150.5755  155.1667 C.ar    1  UNL1        0.2571
     20 N         139.9495  151.8594  155.0928 N.ar    1  UNL1       -0.1301
     21 N         141.0636  151.6742  154.1058 N.ar    1  UNL1       -0.2432
     22 C         142.0823  152.7063  153.7223 C.3     1  UNL1        0.1539
     23 C         140.9803  150.2759  153.5696 C.ar    1  UNL1        0.1146
     24 C         139.8146  149.5967  154.2252 C.ar    1  UNL1        0.1248
     25 C         138.1507  149.6937  157.3844 C.3     1  UNL1        0.2543
     26 O         137.9789  150.3157  156.0303 O.3     1  UNL1       -0.4543
     27 N         139.5929  142.8375  162.2278 N.am    1  UNL1       -0.2964
     28 C         139.0080  143.9058  163.1034 C.2     1  UNL1        0.2374
     29 O         138.2235  145.0294  162.4932 O.2     1  UNL1       -0.2736
     30 H         140.1078  142.1001  162.6282 H       1  UNL1        0.1501
     31 C         139.2075  143.8505  164.5890 C.3     1  UNL1        0.1349
     32 C         138.5583  144.8750  165.4715 C.3     1  UNL1        0.0272
     33 N         140.0562  142.7707  165.1921 N.3     1  UNL1       -0.2641
     34 C         141.5317  142.9822  165.3597 C.3     1  UNL1        0.0900
     35 C         142.3804  141.9025  165.9628 C.3     1  UNL1        0.0897
     36 N         141.7536  140.6112  166.3983 N.3     1  UNL1       -0.2691
     37 C         142.6024  139.5314  167.0014 C.3     1  UNL1        0.0897
     38 C         140.2781  140.3997  166.2306 C.3     1  UNL1        0.0897
     39 C         139.4294  141.4794  165.6276 C.3     1  UNL1        0.0900
@<TRIPOS>BOND
     1    25    26    1
     2    26    19    1
     3    19    20   ar
     4    20    21   ar
     5    21    22    1
     6    21    23   ar
     7    23    24   ar
     8    24    17    1
     9    17    10    1
    10    10    11   ar
    11    11    12   ar
    12    12    13   ar
    13    13    14    1
    14    13    15   ar
    15    15     1    1
    16     1     2    2
    17     2     3    1
    18     3     4    2
    19     4     5    1
    20     5    27    1
    21    27    28   am
    22    28    29    2
    23    28    31    1
    24    31    32    1
    25    31    33    1
    26    33    34    1
    27    34    35    1
    28    35    36    1
    29    36    37    1
    30    36    38    1
    31    38    39    1
    32     5     6    1
    33     6     7    2
    34     7     8    1
    35     8     9    2
    36    15    16   ar
    37    24    19   ar
    38    16    10   ar
    39     9     1    1
    40     9     4    1
    41    39    33    1
    42    17    18    1
    43    27    30    1
@<TRIPOS>MOLECULE
*****
 39 43 0 0 0
SMALL
GASTEIGER

@<TRIPOS>ATOM
      1 C         140.8069  138.9340  162.4444 C.2     1  UNL1        0.0386
      2 C         141.8801  137.9033  162.2548 C.2     1  UNL1        0.1000
      3 N         141.9464  137.5663  160.7947 N.2     1  UNL1       -0.2461
      4 C         140.9141  138.3887  160.0818 C.2     1  UNL1        0.0811
      5 C         140.5244  138.4772  158.6360 C.3     1  UNL1        0.1346
      6 C         139.4305  139.4108  158.2098 C.2     1  UNL1       -0.0009
      7 C         138.7263  140.2560  159.2294 C.2     1  UNL1       -0.0025
      8 C         139.1160  140.1676  160.6752 C.2     1  UNL1        0.0011
      9 C         140.2099  139.2340  161.1014 C.2     1  UNL1        0.0184
     10 C         140.3875  141.5917  165.3617 C.ar    1  UNL1        0.2208
     11 N         139.5916  140.7987  166.3554 N.ar    1  UNL1       -0.2115
     12 C         139.2008  139.3841  166.0455 C.ar    1  UNL1        0.1100
     13 C         139.6059  138.7625  164.7418 C.ar    1  UNL1        0.0715
     14 BR        139.2150  137.3478  164.4320 Br      1  UNL1       -0.0458
     15 C         140.4018  139.5555  163.7481 C.ar    1  UNL1        0.0934
     16 N         140.7926  140.9701  164.0580 N.ar    1  UNL1       -0.2130
     17 N         140.7784  143.0063  165.6716 N.pl3   1  UNL1       -0.2776
     18 H         140.9239  143.2836  166.6050 H       1  UNL1        0.1552
     19 C         142.2498  144.5525  164.0624 C.ar    1  UNL1        0.2571
     20 N         141.9510  145.5074  162.9449 N.ar    1  UNL1       -0.1301
     21 N         140.4641  145.5436  162.7512 N.ar    1  UNL1       -0.2432
     22 C         139.7268  146.3677  161.7376 C.3     1  UNL1        0.1539
     23 C         139.8438  144.6112  163.7490 C.ar    1  UNL1        0.1146
     24 C         140.9474  143.9986  164.5595 C.ar    1  UNL1        0.1248
     25 C         144.2438  142.8966  164.2411 C.3     1  UNL1        0.2543
     26 O         143.6118  144.2114  164.5903 O.3     1  UNL1       -0.4543
     27 N         141.2287  137.6318  157.6164 N.am    1  UNL1       -0.2964
     28 C         142.6551  137.9241  157.2560 C.2     1  UNL1        0.2374
     29 O         143.3772  139.0618  157.9152 O.2     1  UNL1       -0.2736
     30 H         140.7547  136.8852  157.1838 H       1  UNL1        0.1501
     31 C         143.3594  137.0789  156.2365 C.3     1  UNL1        0.1349
     32 C         144.4101  137.6865  155.3551 C.3     1  UNL1        0.0272
     33 N         143.0129  135.6260  156.0982 N.3     1  UNL1       -0.2641
     34 C         142.2558  135.1467  154.8952 C.3     1  UNL1        0.0900
     35 C         141.9093  133.6939  154.7569 C.3     1  UNL1        0.0897
     36 N         142.3200  132.7203  155.8216 N.3     1  UNL1       -0.2691
     37 C         141.9735  131.2674  155.6833 C.3     1  UNL1        0.0897
     38 C         143.0771  133.1996  157.0245 C.3     1  UNL1        0.0897
     39 C         143.4236  134.6524  157.1628 C.3     1  UNL1        0.0900
@<TRIPOS>BOND
     1    25    26    1
     2    26    19    1
     3    19    20   ar
     4    20    21   ar
     5    21    22    1
     6    21    23   ar
     7    23    24   ar
     8    24    17    1
     9    17    10    1
    10    10    11   ar
    11    11    12   ar
    12    12    13   ar
    13    13    14    1
    14    13    15   ar
    15    15     1    1
    16     1     2    2
    17     2     3    1
    18     3     4    2
    19     4     5    1
    20     5    27    1
    21    27    28   am
    22    28    29    2
    23    28    31    1
    24    31    32    1
    25    31    33    1
    26    33    34    1
    27    34    35    1
    28    35    36    1
    29    36    37    1
    30    36    38    1
    31    38    39    1
    32     5     6    1
    33     6     7    2
    34     7     8    1
    35     8     9    2
    36    15    16   ar
    37    24    19   ar
    38    16    10   ar
    39     9     1    1
    40     9     4    1
    41    39    33    1
    42    17    18    1
    43    27    30    1
@<TRIPOS>MOLECULE
*****
 39 43 0 0 0
SMALL
GASTEIGER

@<TRIPOS>ATOM
      1 C         142.6548  139.5453  161.8552 C.2     1  UNL1        0.0386
      2 C         143.0559  138.1008  161.8026 C.2     1  UNL1        0.1000
      3 N         142.9982  137.6556  160.3714 N.2     1  UNL1       -0.2461
      4 C         142.5616  138.8249  159.5395 C.2     1  UNL1        0.0811
      5 C         142.3298  138.9771  158.0653 C.3     1  UNL1        0.1346
      6 C         141.8857  140.2971  157.5082 C.2     1  UNL1       -0.0009
      7 C         141.6735  141.4649  158.4253 C.2     1  UNL1       -0.0025
      8 C         141.9053  141.3128  159.8994 C.2     1  UNL1        0.0011
      9 C         142.3493  139.9928  160.4565 C.2     1  UNL1        0.0184
     10 C         141.2043  141.3333  165.0877 C.ar    1  UNL1        0.2208
     11 N         142.4109  142.0895  165.5590 N.ar    1  UNL1       -0.2115
     12 C         143.6989  141.9977  164.7956 C.ar    1  UNL1        0.1100
     13 C         143.7802  141.1496  163.5610 C.ar    1  UNL1        0.0715
     14 BR        145.0682  141.0578  162.7977 Br      1  UNL1       -0.0458
     15 C         142.5735  140.3933  163.0898 C.ar    1  UNL1        0.0934
     16 N         141.2856  140.4852  163.8532 N.ar    1  UNL1       -0.2130
     17 N         139.9163  141.4251  165.8511 N.pl3   1  UNL1       -0.2776
     18 H         139.1165  141.8072  165.4228 H       1  UNL1        0.1552
     19 C         138.9886  139.8126  167.7705 C.ar    1  UNL1        0.2571
     20 N         139.2351  139.6649  169.2427 N.ar    1  UNL1       -0.1301
     21 N         140.2460  140.6959  169.6491 N.ar    1  UNL1       -0.2432
     22 C         140.7841  140.9053  171.0335 C.3     1  UNL1        0.1539
     23 C         140.6242  141.4808  168.4282 C.ar    1  UNL1        0.1146
     24 C         139.8471  140.9349  167.2670 C.ar    1  UNL1        0.1248
     25 C         138.5428  138.2978  165.7073 C.3     1  UNL1        0.2543
     26 O         138.0486  138.9836  166.9464 O.3     1  UNL1       -0.4543
     27 N         142.5420  137.8091  157.1482 N.am    1  UNL1       -0.2964
     28 C         141.3688  136.9997  156.6809 C.2     1  UNL1        0.2374
     29 O         139.9834  137.3582  157.1306 O.2     1  UNL1       -0.2736
     30 H         143.4513  137.5739  156.8531 H       1  UNL1        0.1501
     31 C         141.5810  135.8318  155.7639 C.3     1  UNL1        0.1349
     32 C         141.0779  135.8858  154.3518 C.3     1  UNL1        0.0272
     33 N         142.2964  134.6098  156.2589 N.3     1  UNL1       -0.2641
     34 C         141.8851  133.2516  155.7730 C.3     1  UNL1        0.0900
     35 C         142.6004  132.0296  156.2680 C.3     1  UNL1        0.0897
     36 N         143.7271  132.1658  157.2488 N.3     1  UNL1       -0.2691
     37 C         144.4424  130.9438  157.7438 C.3     1  UNL1        0.0897
     38 C         144.1384  133.5240  157.7347 C.3     1  UNL1        0.0897
     39 C         143.4230  134.7460  157.2397 C.3     1  UNL1        0.0900
@<TRIPOS>BOND
     1    25    26    1
     2    26    19    1
     3    19    20   ar
     4    20    21   ar
     5    21    22    1
     6    21    23   ar
     7    23    24   ar
     8    24    17    1
     9    17    10    1
    10    10    11   ar
    11    11    12   ar
    12    12    13   ar
    13    13    14    1
    14    13    15   ar
    15    15     1    1
    16     1     2    2
    17     2     3    1
    18     3     4    2
    19     4     5    1
    20     5    27    1
    21    27    28   am
    22    28    29    2
    23    28    31    1
    24    31    32    1
    25    31    33    1
    26    33    34    1
    27    34    35    1
    28    35    36    1
    29    36    37    1
    30    36    38    1
    31    38    39    1
    32     5     6    1
    33     6     7    2
    34     7     8    1
    35     8     9    2
    36    15    16   ar
    37    24    19   ar
    38    16    10   ar
    39     9     1    1
    40     9     4    1
    41    39    33    1
    42    17    18    1
    43    27    30    1
@<TRIPOS>MOLECULE
*****
 39 43 0 0 0
SMALL
GASTEIGER

@<TRIPOS>ATOM
      1 C         141.3891  143.4069  162.0323 C.2     1  UNL1        0.0386
      2 C         140.1057  144.1835  162.0377 C.2     1  UNL1        0.1000
      3 N         139.7024  144.4221  160.6128 N.2     1  UNL1       -0.2461
      4 C         140.7365  143.7929  159.7268 C.2     1  UNL1        0.0811
      5 C         140.8635  143.7103  158.2345 C.3     1  UNL1        0.1346
      6 C         142.0329  143.0002  157.6195 C.2     1  UNL1       -0.0009
      7 C         143.0753  142.3728  158.4968 C.2     1  UNL1       -0.0025
      8 C         142.9483  142.4555  159.9891 C.2     1  UNL1        0.0011
      9 C         141.7788  143.1655  160.6041 C.2     1  UNL1        0.0184
     10 C         142.6015  141.1668  165.0757 C.ar    1  UNL1        0.2208
     11 N         143.6693  142.0409  165.6634 N.ar    1  UNL1       -0.2115
     12 C         143.9771  143.3704  165.0407 C.ar    1  UNL1        0.1100
     13 C         143.2170  143.8257  163.8304 C.ar    1  UNL1        0.0715
     14 BR        143.5249  145.1552  163.2078 Br      1  UNL1       -0.0458
     15 C         142.1492  142.9516  163.2427 C.ar    1  UNL1        0.0934
     16 N         141.8414  141.6221  163.8653 N.ar    1  UNL1       -0.2130
     17 N         142.2937  139.8373  165.6984 N.pl3   1  UNL1       -0.2776
     18 H         142.9148  139.0827  165.5801 H       1  UNL1        0.1552
     19 C         140.8069  140.1561  167.8968 C.ar    1  UNL1        0.2571
     20 N         139.4213  139.7543  168.3076 N.ar    1  UNL1       -0.1301
     21 N         138.7976  139.0074  167.1661 N.ar    1  UNL1       -0.2432
     22 C         137.4163  138.4230  167.1447 C.3     1  UNL1        0.1539
     23 C         139.7976  138.9476  166.0498 C.ar    1  UNL1        0.1146
     24 C         141.0395  139.6575  166.5013 C.ar    1  UNL1        0.1248
     25 C         141.7203  142.4195  168.7871 C.3     1  UNL1        0.2543
     26 O         141.7877  140.9219  168.7343 O.3     1  UNL1       -0.4543
     27 N         139.8210  144.3377  157.3571 N.am    1  UNL1       -0.2964
     28 C         140.0980  145.6491  156.6837 C.2     1  UNL1        0.2374
     29 O         141.4174  146.3330  156.8875 O.2     1  UNL1       -0.2736
     30 H         138.9551  143.8889  157.2234 H       1  UNL1        0.1501
     31 C         139.0556  146.2766  155.8064 C.3     1  UNL1        0.1349
     32 C         138.0264  145.4180  155.1328 C.3     1  UNL1        0.0272
     33 N         139.0424  147.7627  155.6026 N.3     1  UNL1       -0.2641
     34 C         138.4845  148.6606  156.6668 C.3     1  UNL1        0.0900
     35 C         138.4712  150.1467  156.4630 C.3     1  UNL1        0.0897
     36 N         139.0158  150.7347  155.1952 N.3     1  UNL1       -0.2691
     37 C         139.0026  152.2208  154.9914 C.3     1  UNL1        0.0897
     38 C         139.5737  149.8367  154.1310 C.3     1  UNL1        0.0897
     39 C         139.5870  148.3507  154.3347 C.3     1  UNL1        0.0900
@<TRIPOS>BOND
     1    25    26    1
     2    26    19    1
     3    19    20   ar
     4    20    21   ar
     5    21    22    1
     6    21    23   ar
     7    23    24   ar
     8    24    17    1
     9    17    10    1
    10    10    11   ar
    11    11    12   ar
    12    12    13   ar
    13    13    14    1
    14    13    15   ar
    15    15     1    1
    16     1     2    2
    17     2     3    1
    18     3     4    2
    19     4     5    1
    20     5    27    1
    21    27    28   am
    22    28    29    2
    23    28    31    1
    24    31    32    1
    25    31    33    1
    26    33    34    1
    27    34    35    1
    28    35    36    1
    29    36    37    1
    30    36    38    1
    31    38    39    1
    32     5     6    1
    33     6     7    2
    34     7     8    1
    35     8     9    2
    36    15    16   ar
    37    24    19   ar
    38    16    10   ar
    39     9     1    1
    40     9     4    1
    41    39    33    1
    42    17    18    1
    43    27    30    1
