@<TRIPOS>MOLECULE
*****
 32 36 0 0 0
SMALL
GASTEIGER

@<TRIPOS>ATOM
      1 C         143.0062  138.5633  159.0010 C.3     1  UNL1        0.0254
      2 C         143.4201  137.9124  160.2875 C.3     1  UNL1        0.0259
      3 C         143.9578  138.7475  161.4115 C.3     1  UNL1        0.0937
      4 N         144.0817  140.2335  161.2490 N.am    1  UNL1       -0.2792
      5 C         144.6195  141.0687  162.3730 C.2     1  UNL1        0.2301
      6 O         144.7433  142.5547  162.2105 O.2     1  UNL1       -0.2745
      7 C         143.6678  140.8844  159.9625 C.3     1  UNL1        0.0937
      8 C         143.1301  140.0492  158.8385 C.3     1  UNL1        0.0259
      9 C         142.9931  136.3403  157.6563 C.2     1  UNL1       -0.0046
     10 C         142.4684  137.7280  157.8770 C.2     1  UNL1       -0.0264
     11 O         140.1640  132.9598  152.0705 O.2     1  UNL1       -0.2449
     12 C         140.9846  132.7643  153.3108 C.2     1  UNL1        0.3413
     13 O         141.5541  131.4639  153.7953 O.3     1  UNL1       -0.4404
     14 C         142.3013  131.7308  155.0683 C.3     1  UNL1        0.2356
     15 C         142.1936  133.1961  155.3706 C.ar    1  UNL1        0.0275
     16 C         142.7313  134.0312  156.4945 C.ar    1  UNL1       -0.0005
     17 C         142.4553  135.5050  156.5323 C.ar    1  UNL1       -0.0005
     18 C         141.6415  136.1438  155.4461 C.ar    1  UNL1        0.0002
     19 C         141.1038  135.3087  154.3222 C.ar    1  UNL1        0.0062
     20 C         141.3798  133.8348  154.2844 C.ar    1  UNL1        0.0752
     21 C         145.0333  140.4178  163.6595 C.3     1  UNL1        0.1116
     22 C         144.0558  140.3055  164.7916 C.ar    1  UNL1       -0.0130
     23 C         143.3505  141.5288  165.2977 C.ar    1  UNL1       -0.0022
     24 C         142.3730  141.4165  166.4298 C.ar    1  UNL1        0.0190
     25 C         142.1007  140.0809  167.0560 C.ar    1  UNL1        0.0862
     26 C         142.8061  138.8576  166.5499 C.ar    1  UNL1        0.0190
     27 C         143.7836  138.9699  165.4177 C.ar    1  UNL1       -0.0022
     28 N         141.1232  139.9686  168.1881 N.ar    1  UNL1       -0.1886
     29 C         141.4637  139.6946  169.6230 C.ar    1  UNL1        0.2258
     30 N         140.1845  139.6672  170.4059 N.ar    1  UNL1       -0.1045
     31 N         139.0534  139.9242  169.4548 N.ar    1  UNL1       -0.0222
     32 N         139.6335  140.1105  168.0841 N.ar    1  UNL1       -0.0385
@<TRIPOS>BOND
     1    11    12    2
     2    12    13    1
     3    13    14    1
     4    14    15    1
     5    15    16   ar
     6    16    17   ar
     7    17     9    1
     8     9    10    2
     9    10     1    1
    10     1     2    1
    11     2     3    1
    12     3     4    1
    13     4     5   am
    14     5     6    2
    15     5    21    1
    16    21    22    1
    17    22    23   ar
    18    23    24   ar
    19    24    25   ar
    20    25    28    1
    21    28    29   ar
    22    29    30   ar
    23    30    31   ar
    24    31    32   ar
    25    25    26   ar
    26    26    27   ar
    27     4     7    1
    28     7     8    1
    29    17    18   ar
    30    18    19   ar
    31    19    20   ar
    32    20    12    1
    33    20    15   ar
    34     8     1    1
    35    27    22   ar
    36    32    28   ar
@<TRIPOS>MOLECULE
*****
 32 36 0 0 0
SMALL
GASTEIGER

@<TRIPOS>ATOM
      1 C         141.0850  138.9129  161.4293 C.3     1  UNL1        0.0254
      2 C         142.2531  138.0358  161.0885 C.3     1  UNL1        0.0259
      3 C         142.5019  137.6381  159.6638 C.3     1  UNL1        0.0937
      4 N         141.5825  138.1174  158.5799 N.am    1  UNL1       -0.2792
      5 C         141.8312  137.7196  157.1551 C.2     1  UNL1        0.2301
      6 O         140.9118  138.1990  156.0712 O.2     1  UNL1       -0.2745
      7 C         140.4144  138.9945  158.9207 C.3     1  UNL1        0.0937
      8 C         140.1656  139.3923  160.3454 C.3     1  UNL1        0.0259
      9 C         139.9211  138.4895  163.7132 C.2     1  UNL1       -0.0046
     10 C         140.8363  139.3107  162.8541 C.2     1  UNL1       -0.0264
     11 O         138.1096  140.1003  170.4032 O.2     1  UNL1       -0.2449
     12 C         139.2189  140.1922  169.3977 C.2     1  UNL1        0.3413
     13 O         140.5667  140.8096  169.6257 O.3     1  UNL1       -0.4404
     14 C         141.3558  140.6818  168.3565 C.3     1  UNL1        0.2356
     15 C         140.4957  139.9853  167.3440 C.ar    1  UNL1        0.0275
     16 C         140.7444  139.5876  165.9193 C.ar    1  UNL1       -0.0005
     17 C         139.6724  138.8873  165.1380 C.ar    1  UNL1       -0.0005
     18 C         138.3517  138.5847  165.7815 C.ar    1  UNL1        0.0002
     19 C         138.1029  138.9824  167.2063 C.ar    1  UNL1        0.0062
     20 C         139.1749  139.6828  167.9875 C.ar    1  UNL1        0.0752
     21 C         142.9994  136.8425  156.8143 C.3     1  UNL1        0.1116
     22 C         142.7947  135.3730  156.5938 C.ar    1  UNL1       -0.0130
     23 C         141.7782  134.8984  155.5982 C.ar    1  UNL1       -0.0022
     24 C         141.5735  133.4289  155.3778 C.ar    1  UNL1        0.0190
     25 C         142.3855  132.4339  156.1530 C.ar    1  UNL1        0.0862
     26 C         143.4020  132.9086  157.1486 C.ar    1  UNL1        0.0190
     27 C         143.6066  134.3782  157.3691 C.ar    1  UNL1       -0.0022
     28 N         142.1808  130.9644  155.9325 N.ar    1  UNL1       -0.1886
     29 C         141.1824  130.3432  155.0013 C.ar    1  UNL1        0.2258
     30 N         141.3232  128.8530  155.0978 N.ar    1  UNL1       -0.1045
     31 N         142.4087  128.5531  156.0888 N.ar    1  UNL1       -0.0222
     32 N         142.9387  129.8581  156.6046 N.ar    1  UNL1       -0.0385
@<TRIPOS>BOND
     1    11    12    2
     2    12    13    1
     3    13    14    1
     4    14    15    1
     5    15    16   ar
     6    16    17   ar
     7    17     9    1
     8     9    10    2
     9    10     1    1
    10     1     2    1
    11     2     3    1
    12     3     4    1
    13     4     5   am
    14     5     6    2
    15     5    21    1
    16    21    22    1
    17    22    23   ar
    18    23    24   ar
    19    24    25   ar
    20    25    28    1
    21    28    29   ar
    22    29    30   ar
    23    30    31   ar
    24    31    32   ar
    25    25    26   ar
    26    26    27   ar
    27     4     7    1
    28     7     8    1
    29    17    18   ar
    30    18    19   ar
    31    19    20   ar
    32    20    12    1
    33    20    15   ar
    34     8     1    1
    35    27    22   ar
    36    32    28   ar
@<TRIPOS>MOLECULE
*****
 32 36 0 0 0
SMALL
GASTEIGER

@<TRIPOS>ATOM
      1 C         142.8018  139.1938  160.2806 C.3     1  UNL1        0.0254
      2 C         141.5929  139.6680  161.0314 C.3     1  UNL1        0.0259
      3 C         141.6950  140.8524  161.9461 C.3     1  UNL1        0.0937
      4 N         143.0059  141.5627  162.1098 N.am    1  UNL1       -0.2792
      5 C         143.1081  142.7472  163.0245 C.2     1  UNL1        0.2301
      6 O         144.4190  143.4575  163.1883 O.2     1  UNL1       -0.2745
      7 C         144.2148  141.0886  161.3590 C.3     1  UNL1        0.0937
      8 C         144.1127  139.9041  160.4443 C.3     1  UNL1        0.0259
      9 C         142.1480  138.1764  157.9811 C.2     1  UNL1       -0.0046
     10 C         142.6996  138.0093  159.3659 C.2     1  UNL1       -0.0264
     11 O         141.1042  132.8605  153.3676 O.2     1  UNL1       -0.2449
     12 C         141.9947  133.3399  154.4755 C.2     1  UNL1        0.3413
     13 O         143.1947  132.6203  155.0161 O.3     1  UNL1       -0.4404
     14 C         143.7831  133.4588  156.1119 C.3     1  UNL1        0.2356
     15 C         142.9468  134.6965  156.2485 C.ar    1  UNL1        0.0275
     16 C         143.0490  135.8809  157.1631 C.ar    1  UNL1       -0.0005
     17 C         142.0458  136.9919  157.0664 C.ar    1  UNL1       -0.0005
     18 C         140.9405  136.9184  156.0550 C.ar    1  UNL1        0.0002
     19 C         140.8383  135.7340  155.1404 C.ar    1  UNL1        0.0062
     20 C         141.8415  134.6230  155.2371 C.ar    1  UNL1        0.0752
     21 C         141.8992  143.2214  163.7754 C.3     1  UNL1        0.1116
     22 C         141.7666  142.9340  165.2416 C.ar    1  UNL1       -0.0130
     23 C         142.9505  142.4406  166.0193 C.ar    1  UNL1       -0.0022
     24 C         142.8179  142.1533  167.4855 C.ar    1  UNL1        0.0190
     25 C         141.5012  142.3593  168.1741 C.ar    1  UNL1        0.0862
     26 C         140.3173  142.8527  167.3964 C.ar    1  UNL1        0.0190
     27 C         140.4500  143.1400  165.9301 C.ar    1  UNL1       -0.0022
     28 N         141.3686  142.0719  169.6402 N.ar    1  UNL1       -0.1886
     29 C         142.1058  141.0097  170.4007 C.ar    1  UNL1        0.2258
     30 N         141.6683  141.0776  171.8339 N.ar    1  UNL1       -0.1045
     31 N         140.6607  142.1817  171.9592 N.ar    1  UNL1       -0.0222
     32 N         140.4755  142.7962  170.6034 N.ar    1  UNL1       -0.0385
@<TRIPOS>BOND
     1    11    12    2
     2    12    13    1
     3    13    14    1
     4    14    15    1
     5    15    16   ar
     6    16    17   ar
     7    17     9    1
     8     9    10    2
     9    10     1    1
    10     1     2    1
    11     2     3    1
    12     3     4    1
    13     4     5   am
    14     5     6    2
    15     5    21    1
    16    21    22    1
    17    22    23   ar
    18    23    24   ar
    19    24    25   ar
    20    25    28    1
    21    28    29   ar
    22    29    30   ar
    23    30    31   ar
    24    31    32   ar
    25    25    26   ar
    26    26    27   ar
    27     4     7    1
    28     7     8    1
    29    17    18   ar
    30    18    19   ar
    31    19    20   ar
    32    20    12    1
    33    20    15   ar
    34     8     1    1
    35    27    22   ar
    36    32    28   ar
@<TRIPOS>MOLECULE
*****
 32 36 0 0 0
SMALL
GASTEIGER

@<TRIPOS>ATOM
      1 C         142.5311  139.6649  160.0566 C.3     1  UNL1        0.0254
      2 C         141.8902  140.8348  160.7426 C.3     1  UNL1        0.0259
      3 C         140.8868  140.6068  161.8340 C.3     1  UNL1        0.0937
      4 N         140.5244  139.2088  162.2394 N.am    1  UNL1       -0.2792
      5 C         139.5210  138.9807  163.3309 C.2     1  UNL1        0.2301
      6 O         139.1586  137.5828  163.7363 O.2     1  UNL1       -0.2745
      7 C         141.1654  138.0390  161.5534 C.3     1  UNL1        0.0937
      8 C         142.1687  138.2670  160.4620 C.3     1  UNL1        0.0259
      9 C         143.9044  141.2910  158.5666 C.2     1  UNL1       -0.0046
     10 C         143.5345  139.8931  158.9651 C.2     1  UNL1       -0.0264
     11 O         148.9934  142.7972  153.8268 O.2     1  UNL1       -0.2449
     12 C         147.7373  142.0051  154.0385 C.2     1  UNL1        0.3413
     13 O         147.0836  141.1036  153.0335 O.3     1  UNL1       -0.4404
     14 C         145.8567  140.5167  153.6663 C.3     1  UNL1        0.2356
     15 C         145.7522  141.0555  155.0623 C.ar    1  UNL1        0.0275
     16 C         144.7489  140.8274  156.1537 C.ar    1  UNL1       -0.0005
     17 C         144.9078  141.5191  157.4751 C.ar    1  UNL1       -0.0005
     18 C         146.0701  142.4390  157.7051 C.ar    1  UNL1        0.0002
     19 C         147.0734  142.6671  156.6137 C.ar    1  UNL1        0.0062
     20 C         146.9145  141.9754  155.2923 C.ar    1  UNL1        0.0752
     21 C         138.8801  140.1506  164.0169 C.3     1  UNL1        0.1116
     22 C         139.2831  140.5128  165.4156 C.ar    1  UNL1       -0.0130
     23 C         138.9441  139.5977  166.5547 C.ar    1  UNL1       -0.0022
     24 C         139.3472  139.9599  167.9533 C.ar    1  UNL1        0.0190
     25 C         140.0892  141.2374  168.2129 C.ar    1  UNL1        0.0862
     26 C         140.4283  142.1526  167.0739 C.ar    1  UNL1        0.0190
     27 C         140.0252  141.7903  165.6752 C.ar    1  UNL1       -0.0022
     28 N         140.4923  141.5997  169.6116 N.ar    1  UNL1       -0.1886
     29 C         141.8969  141.7840  170.1046 C.ar    1  UNL1        0.2258
     30 N         141.8342  142.1395  171.5605 N.ar    1  UNL1       -0.1045
     31 N         140.3908  142.1749  171.9674 N.ar    1  UNL1       -0.0222
     32 N         139.5615  141.8413  170.7628 N.ar    1  UNL1       -0.0385
@<TRIPOS>BOND
     1    11    12    2
     2    12    13    1
     3    13    14    1
     4    14    15    1
     5    15    16   ar
     6    16    17   ar
     7    17     9    1
     8     9    10    2
     9    10     1    1
    10     1     2    1
    11     2     3    1
    12     3     4    1
    13     4     5   am
    14     5     6    2
    15     5    21    1
    16    21    22    1
    17    22    23   ar
    18    23    24   ar
    19    24    25   ar
    20    25    28    1
    21    28    29   ar
    22    29    30   ar
    23    30    31   ar
    24    31    32   ar
    25    25    26   ar
    26    26    27   ar
    27     4     7    1
    28     7     8    1
    29    17    18   ar
    30    18    19   ar
    31    19    20   ar
    32    20    12    1
    33    20    15   ar
    34     8     1    1
    35    27    22   ar
    36    32    28   ar
@<TRIPOS>MOLECULE
*****
 32 36 0 0 0
SMALL
GASTEIGER

@<TRIPOS>ATOM
      1 C         142.0392  139.4509  161.7812 C.3     1  UNL1        0.0254
      2 C         141.1718  138.5943  160.9072 C.3     1  UNL1        0.0259
      3 C         141.5263  138.3951  159.4634 C.3     1  UNL1        0.0937
      4 N         142.7482  139.0525  158.8936 N.am    1  UNL1       -0.2792
      5 C         143.1028  138.8534  157.4497 C.2     1  UNL1        0.2301
      6 O         144.3246  139.5108  156.8799 O.2     1  UNL1       -0.2745
      7 C         143.6156  139.9092  159.7675 C.3     1  UNL1        0.0937
      8 C         143.2611  140.1084  161.2113 C.3     1  UNL1        0.0259
      9 C         140.3208  139.2714  163.7215 C.2     1  UNL1       -0.0046
     10 C         141.6846  139.6501  163.2250 C.2     1  UNL1       -0.0264
     11 O         138.0543  139.8682  170.4401 O.2     1  UNL1       -0.2449
     12 C         139.1774  140.2184  169.5095 C.2     1  UNL1        0.3413
     13 O         140.4179  140.9797  169.8721 O.3     1  UNL1       -0.4404
     14 C         141.2644  141.1005  168.6396 C.3     1  UNL1        0.2356
     15 C         140.5469  140.4140  167.5154 C.ar    1  UNL1        0.0275
     16 C         140.9015  140.2149  166.0716 C.ar    1  UNL1       -0.0005
     17 C         139.9663  139.4705  165.1654 C.ar    1  UNL1       -0.0005
     18 C         138.6764  138.9253  165.7030 C.ar    1  UNL1        0.0002
     19 C         138.3218  139.1245  167.1468 C.ar    1  UNL1        0.0062
     20 C         139.2571  139.8688  168.0530 C.ar    1  UNL1        0.0752
     21 C         142.2354  137.9967  156.5757 C.3     1  UNL1        0.1116
     22 C         142.6459  136.5887  156.2611 C.ar    1  UNL1       -0.0130
     23 C         142.5418  136.0732  154.8563 C.ar    1  UNL1       -0.0022
     24 C         142.9523  134.6652  154.5418 C.ar    1  UNL1        0.0190
     25 C         143.4670  133.7727  155.6320 C.ar    1  UNL1        0.0862
     26 C         143.5712  134.2882  157.0368 C.ar    1  UNL1        0.0190
     27 C         143.1606  135.6963  157.3513 C.ar    1  UNL1       -0.0022
     28 N         143.8776  132.3647  155.3174 N.ar    1  UNL1       -0.1886
     29 C         144.8129  131.5171  156.1278 C.ar    1  UNL1        0.2258
     30 N         144.9383  130.1857  155.4484 N.ar    1  UNL1       -0.1045
     31 N         144.0804  130.2104  154.2181 N.ar    1  UNL1       -0.0222
     32 N         143.4249  131.5571  154.1372 N.ar    1  UNL1       -0.0385
@<TRIPOS>BOND
     1    11    12    2
     2    12    13    1
     3    13    14    1
     4    14    15    1
     5    15    16   ar
     6    16    17   ar
     7    17     9    1
     8     9    10    2
     9    10     1    1
    10     1     2    1
    11     2     3    1
    12     3     4    1
    13     4     5   am
    14     5     6    2
    15     5    21    1
    16    21    22    1
    17    22    23   ar
    18    23    24   ar
    19    24    25   ar
    20    25    28    1
    21    28    29   ar
    22    29    30   ar
    23    30    31   ar
    24    31    32   ar
    25    25    26   ar
    26    26    27   ar
    27     4     7    1
    28     7     8    1
    29    17    18   ar
    30    18    19   ar
    31    19    20   ar
    32    20    12    1
    33    20    15   ar
    34     8     1    1
    35    27    22   ar
    36    32    28   ar
@<TRIPOS>MOLECULE
*****
 32 36 0 0 0
SMALL
GASTEIGER

@<TRIPOS>ATOM
      1 C         141.2364  141.5731  159.6272 C.3     1  UNL1        0.0254
      2 C         141.4390  140.4518  160.6028 C.3     1  UNL1        0.0259
      3 C         140.4226  140.1992  161.6766 C.3     1  UNL1        0.0937
      4 N         139.2037  141.0678  161.7749 N.am    1  UNL1       -0.2792
      5 C         138.1873  140.8152  162.8488 C.2     1  UNL1        0.2301
      6 O         136.9684  141.6838  162.9470 O.2     1  UNL1       -0.2745
      7 C         139.0011  142.1890  160.7993 C.3     1  UNL1        0.0937
      8 C         140.0174  142.4417  159.7254 C.3     1  UNL1        0.0259
      9 C         143.5777  141.1237  158.5945 C.2     1  UNL1       -0.0046
     10 C         142.2528  141.8257  158.5533 C.2     1  UNL1       -0.0264
     11 O         148.7103  142.7541  153.9437 O.2     1  UNL1       -0.2449
     12 C         147.4705  141.9314  154.1337 C.2     1  UNL1        0.3413
     13 O         146.8567  141.0141  153.1179 O.3     1  UNL1       -0.4404
     14 C         145.6337  140.3974  153.7294 C.3     1  UNL1        0.2356
     15 C         145.4917  140.9335  155.1231 C.ar    1  UNL1        0.0275
     16 C         144.4753  140.6809  156.1969 C.ar    1  UNL1       -0.0005
     17 C         144.5941  141.3763  157.5206 C.ar    1  UNL1       -0.0005
     18 C         145.7293  142.3244  157.7705 C.ar    1  UNL1        0.0002
     19 C         146.7457  142.5771  156.6967 C.ar    1  UNL1        0.0062
     20 C         146.6269  141.8816  155.3730 C.ar    1  UNL1        0.0752
     21 C         138.3899  139.6939  163.8244 C.3     1  UNL1        0.1116
     22 C         138.7794  139.9940  165.2414 C.ar    1  UNL1       -0.0130
     23 C         138.2736  139.1289  166.3575 C.ar    1  UNL1       -0.0022
     24 C         138.6631  139.4289  167.7746 C.ar    1  UNL1        0.0190
     25 C         139.5586  140.5942  168.0757 C.ar    1  UNL1        0.0862
     26 C         140.0644  141.4593  166.9596 C.ar    1  UNL1        0.0190
     27 C         139.6748  141.1592  165.5424 C.ar    1  UNL1       -0.0022
     28 N         139.9481  140.8942  169.4928 N.ar    1  UNL1       -0.1886
     29 C         140.1900  142.2570  170.0709 C.ar    1  UNL1        0.2258
     30 N         140.5555  142.0893  171.5160 N.ar    1  UNL1       -0.1045
     31 N         140.5396  140.6227  171.8309 N.ar    1  UNL1       -0.0222
     32 N         140.1642  139.8842  170.5805 N.ar    1  UNL1       -0.0385
@<TRIPOS>BOND
     1    11    12    2
     2    12    13    1
     3    13    14    1
     4    14    15    1
     5    15    16   ar
     6    16    17   ar
     7    17     9    1
     8     9    10    2
     9    10     1    1
    10     1     2    1
    11     2     3    1
    12     3     4    1
    13     4     5   am
    14     5     6    2
    15     5    21    1
    16    21    22    1
    17    22    23   ar
    18    23    24   ar
    19    24    25   ar
    20    25    28    1
    21    28    29   ar
    22    29    30   ar
    23    30    31   ar
    24    31    32   ar
    25    25    26   ar
    26    26    27   ar
    27     4     7    1
    28     7     8    1
    29    17    18   ar
    30    18    19   ar
    31    19    20   ar
    32    20    12    1
    33    20    15   ar
    34     8     1    1
    35    27    22   ar
    36    32    28   ar
@<TRIPOS>MOLECULE
*****
 32 36 0 0 0
SMALL
GASTEIGER

@<TRIPOS>ATOM
      1 C         142.2757  139.6820  161.6999 C.3     1  UNL1        0.0254
      2 C         143.3840  139.0109  160.9442 C.3     1  UNL1        0.0259
      3 C         143.1091  138.3834  159.6097 C.3     1  UNL1        0.0937
      4 N         141.7260  138.4271  159.0311 N.am    1  UNL1       -0.2792
      5 C         141.4511  137.7997  157.6966 C.2     1  UNL1        0.2301
      6 O         140.0679  137.8433  157.1180 O.2     1  UNL1       -0.2745
      7 C         140.6176  139.0983  159.7869 C.3     1  UNL1        0.0937
      8 C         140.8925  139.7257  161.1213 C.3     1  UNL1        0.0259
      9 C         142.1783  139.5858  164.2944 C.2     1  UNL1       -0.0046
     10 C         142.5506  140.3095  163.0344 C.2     1  UNL1       -0.0264
     11 O         143.6442  143.1416  170.2810 O.2     1  UNL1       -0.2449
     12 C         143.1962  141.8145  169.7444 C.2     1  UNL1        0.3413
     13 O         142.8629  140.6006  170.5601 O.3     1  UNL1       -0.4404
     14 C         142.4636  139.5041  169.6176 C.3     1  UNL1        0.2356
     15 C         142.5503  140.0403  168.2193 C.ar    1  UNL1        0.0275
     16 C         142.2753  139.4128  166.8850 C.ar    1  UNL1       -0.0005
     17 C         142.4532  140.2133  165.6289 C.ar    1  UNL1       -0.0005
     18 C         142.9060  141.6411  165.7073 C.ar    1  UNL1        0.0002
     19 C         143.1809  142.2686  167.0417 C.ar    1  UNL1        0.0062
     20 C         143.0030  141.4682  168.2977 C.ar    1  UNL1        0.0752
     21 C         142.5594  137.1285  156.9408 C.3     1  UNL1        0.1116
     22 C         142.5076  135.6508  156.6885 C.ar    1  UNL1       -0.0130
     23 C         141.5920  135.1015  155.6350 C.ar    1  UNL1       -0.0022
     24 C         141.5402  133.6238  155.3827 C.ar    1  UNL1        0.0190
     25 C         142.4040  132.6954  156.1840 C.ar    1  UNL1        0.0862
     26 C         143.3196  133.2447  157.2375 C.ar    1  UNL1        0.0190
     27 C         143.3714  134.7225  157.4898 C.ar    1  UNL1       -0.0022
     28 N         142.3522  131.2177  155.9317 N.ar    1  UNL1       -0.1886
     29 C         143.1671  130.1739  156.6363 C.ar    1  UNL1        0.2258
     30 N         142.7950  128.8354  156.0706 N.ar    1  UNL1       -0.1045
     31 N         141.7501  129.0520  155.0163 N.ar    1  UNL1       -0.0222
     32 N         141.4765  130.5243  154.9305 N.ar    1  UNL1       -0.0385
@<TRIPOS>BOND
     1    11    12    2
     2    12    13    1
     3    13    14    1
     4    14    15    1
     5    15    16   ar
     6    16    17   ar
     7    17     9    1
     8     9    10    2
     9    10     1    1
    10     1     2    1
    11     2     3    1
    12     3     4    1
    13     4     5   am
    14     5     6    2
    15     5    21    1
    16    21    22    1
    17    22    23   ar
    18    23    24   ar
    19    24    25   ar
    20    25    28    1
    21    28    29   ar
    22    29    30   ar
    23    30    31   ar
    24    31    32   ar
    25    25    26   ar
    26    26    27   ar
    27     4     7    1
    28     7     8    1
    29    17    18   ar
    30    18    19   ar
    31    19    20   ar
    32    20    12    1
    33    20    15   ar
    34     8     1    1
    35    27    22   ar
    36    32    28   ar
@<TRIPOS>MOLECULE
*****
 32 36 0 0 0
SMALL
GASTEIGER

@<TRIPOS>ATOM
      1 C         141.8268  143.6453  159.1147 C.3     1  UNL1        0.0254
      2 C         141.3854  142.3175  159.6550 C.3     1  UNL1        0.0259
      3 C         140.2957  142.2510  160.6836 C.3     1  UNL1        0.0937
      4 N         139.6474  143.5124  161.1719 N.am    1  UNL1       -0.2792
      5 C         138.5576  143.4460  162.2006 C.2     1  UNL1        0.2301
      6 O         137.9093  144.7074  162.6888 O.2     1  UNL1       -0.2745
      7 C         140.0888  144.8403  160.6316 C.3     1  UNL1        0.0937
      8 C         141.1785  144.9068  159.6030 C.3     1  UNL1        0.0259
      9 C         143.5318  142.4479  157.5625 C.2     1  UNL1       -0.0046
     10 C         142.9166  143.7117  158.0860 C.2     1  UNL1       -0.0264
     11 O         148.2136  142.9498  152.2277 O.2     1  UNL1       -0.2449
     12 C         148.0755  142.6271  153.6860 C.2     1  UNL1        0.3413
     13 O         149.1878  142.2279  154.6098 O.3     1  UNL1       -0.4404
     14 C         148.6005  142.0011  155.9713 C.3     1  UNL1        0.2356
     15 C         147.1254  142.2602  155.8890 C.ar    1  UNL1        0.0275
     16 C         146.0357  142.1937  156.9176 C.ar    1  UNL1       -0.0005
     17 C         144.6215  142.5143  156.5338 C.ar    1  UNL1       -0.0005
     18 C         144.2970  142.9012  155.1214 C.ar    1  UNL1        0.0002
     19 C         145.3867  142.9676  154.0928 C.ar    1  UNL1        0.0062
     20 C         146.8009  142.6471  154.4766 C.ar    1  UNL1        0.0752
     21 C         138.1162  142.1182  162.7409 C.3     1  UNL1        0.1116
     22 C         138.6024  141.6552  164.0822 C.ar    1  UNL1       -0.0130
     23 C         138.2133  140.2999  164.5941 C.ar    1  UNL1       -0.0022
     24 C         138.6995  139.8369  165.9355 C.ar    1  UNL1        0.0190
     25 C         139.5747  140.7292  166.7650 C.ar    1  UNL1        0.0862
     26 C         139.9637  142.0844  166.2531 C.ar    1  UNL1        0.0190
     27 C         139.4775  142.5474  164.9117 C.ar    1  UNL1       -0.0022
     28 N         140.0608  140.2661  168.1064 N.ar    1  UNL1       -0.1886
     29 C         141.4787  139.9307  168.4626 C.ar    1  UNL1        0.2258
     30 N         141.5086  139.5145  169.9034 N.ar    1  UNL1       -0.1045
     31 N         140.1091  139.5928  170.4376 N.ar    1  UNL1       -0.0222
     32 N         139.2144  140.0573  169.3270 N.ar    1  UNL1       -0.0385
@<TRIPOS>BOND
     1    11    12    2
     2    12    13    1
     3    13    14    1
     4    14    15    1
     5    15    16   ar
     6    16    17   ar
     7    17     9    1
     8     9    10    2
     9    10     1    1
    10     1     2    1
    11     2     3    1
    12     3     4    1
    13     4     5   am
    14     5     6    2
    15     5    21    1
    16    21    22    1
    17    22    23   ar
    18    23    24   ar
    19    24    25   ar
    20    25    28    1
    21    28    29   ar
    22    29    30   ar
    23    30    31   ar
    24    31    32   ar
    25    25    26   ar
    26    26    27   ar
    27     4     7    1
    28     7     8    1
    29    17    18   ar
    30    18    19   ar
    31    19    20   ar
    32    20    12    1
    33    20    15   ar
    34     8     1    1
    35    27    22   ar
    36    32    28   ar
@<TRIPOS>MOLECULE
*****
 32 36 0 0 0
SMALL
GASTEIGER

@<TRIPOS>ATOM
      1 C         139.4457  140.8903  162.2857 C.3     1  UNL1        0.0254
      2 C         140.4621  141.6665  161.5018 C.3     1  UNL1        0.0259
      3 C         140.2794  141.8649  160.0263 C.3     1  UNL1        0.0937
      4 N         139.0804  141.2871  159.3347 N.am    1  UNL1       -0.2792
      5 C         138.8977  141.4855  157.8591 C.2     1  UNL1        0.2301
      6 O         137.6987  140.9077  157.1674 O.2     1  UNL1       -0.2745
      7 C         138.0640  140.5109  160.1185 C.3     1  UNL1        0.0937
      8 C         138.2467  140.3125  161.5941 C.3     1  UNL1        0.0259
      9 C         139.5972  141.8723  164.6863 C.2     1  UNL1       -0.0046
     10 C         139.6284  140.6919  163.7613 C.2     1  UNL1       -0.0264
     11 O         140.2178  140.2899  171.5959 O.2     1  UNL1       -0.2449
     12 C         140.4329  141.3741  170.5819 C.2     1  UNL1        0.3413
     13 O         140.9733  142.7457  170.8589 O.3     1  UNL1       -0.4404
     14 C         141.0197  143.4963  169.5610 C.3     1  UNL1        0.2356
     15 C         140.5078  142.5887  168.4820 C.ar    1  UNL1        0.0275
     16 C         140.3252  142.7871  167.0065 C.ar    1  UNL1       -0.0005
     17 C         139.7799  141.6739  166.1619 C.ar    1  UNL1       -0.0005
     18 C         139.4172  140.3623  166.7929 C.ar    1  UNL1        0.0002
     19 C         139.5999  140.1639  168.2684 C.ar    1  UNL1        0.0062
     20 C         140.1452  141.2771  169.1130 C.ar    1  UNL1        0.0752
     21 C         139.9141  142.2617  157.0752 C.3     1  UNL1        0.1116
     22 C         139.6948  143.7197  156.7994 C.ar    1  UNL1       -0.0130
     23 C         140.3458  144.7538  157.6694 C.ar    1  UNL1       -0.0022
     24 C         140.1265  146.2118  157.3936 C.ar    1  UNL1        0.0190
     25 C         139.2562  146.6358  156.2478 C.ar    1  UNL1        0.0862
     26 C         138.6052  145.6017  155.3778 C.ar    1  UNL1        0.0190
     27 C         138.8245  144.1436  155.6536 C.ar    1  UNL1       -0.0022
     28 N         139.0369  148.0938  155.9720 N.ar    1  UNL1       -0.1886
     29 C         139.4417  148.8262  154.7271 C.ar    1  UNL1        0.2258
     30 N         139.0293  150.2604  154.8784 N.ar    1  UNL1       -0.1045
     31 N         138.3696  150.4144  156.2167 N.ar    1  UNL1       -0.0222
     32 N         138.3743  149.0753  156.8926 N.ar    1  UNL1       -0.0385
@<TRIPOS>BOND
     1    11    12    2
     2    12    13    1
     3    13    14    1
     4    14    15    1
     5    15    16   ar
     6    16    17   ar
     7    17     9    1
     8     9    10    2
     9    10     1    1
    10     1     2    1
    11     2     3    1
    12     3     4    1
    13     4     5   am
    14     5     6    2
    15     5    21    1
    16    21    22    1
    17    22    23   ar
    18    23    24   ar
    19    24    25   ar
    20    25    28    1
    21    28    29   ar
    22    29    30   ar
    23    30    31   ar
    24    31    32   ar
    25    25    26   ar
    26    26    27   ar
    27     4     7    1
    28     7     8    1
    29    17    18   ar
    30    18    19   ar
    31    19    20   ar
    32    20    12    1
    33    20    15   ar
    34     8     1    1
    35    27    22   ar
    36    32    28   ar
