@<TRIPOS>MOLECULE
*****
 27 29 0 0 0
SMALL
GASTEIGER

@<TRIPOS>ATOM
      1 N         142.7517  143.5933  164.6069 N.pl3   1  UNL1       -0.1766
      2 C         141.3841  144.0254  164.1677 C.ar    1  UNL1        0.0853
      3 C         140.9132  144.8143  162.9820 C.ar    1  UNL1        0.0175
      4 C         139.4512  145.0970  162.8020 C.ar    1  UNL1        0.0014
      5 C         138.4600  144.5908  163.8077 C.ar    1  UNL1        0.0014
      6 C         138.9309  143.8019  164.9934 C.ar    1  UNL1        0.0179
      7 C         140.3929  143.5192  165.1734 C.ar    1  UNL1        0.0898
      8 N         141.1480  142.7744  166.2341 N.pl3   1  UNL1       -0.1533
      9 S         142.6059  142.8202  165.8840 S.O2    1  UNL1        0.1339
     10 O         144.0984  142.6991  165.7970 O.2     1  UNL1       -0.1342
     11 O         142.7720  142.0217  167.1429 O.2     1  UNL1       -0.1342
     12 C         140.5502  142.1018  167.4342 C.ar    1  UNL1        0.1023
     13 C         140.4870  142.8261  168.7461 C.ar    1  UNL1        0.0189
     14 C         139.8892  142.1535  169.9462 C.ar    1  UNL1        0.0015
     15 C         139.3545  140.7565  169.8344 C.ar    1  UNL1        0.0024
     16 C         139.4176  140.0321  168.5224 C.ar    1  UNL1        0.0310
     17 C         140.0154  140.7047  167.3223 C.ar    1  UNL1        0.1553
     18 F         140.0786  139.9803  166.0103 F       1  UNL1       -0.2028
     19 C         144.0392  143.8836  163.8941 C.3     1  UNL1        0.1198
     20 C         144.3159  143.2561  162.5599 C.3     1  UNL1        0.0541
     21 C         145.0524  141.9516  162.4829 C.3     1  UNL1        0.1280
     22 O         146.4151  141.8224  163.0963 O.3     1  UNL1       -0.3830
     23 H         146.6700  142.6674  163.4987 H       1  UNL1        0.2104
     24 C         144.4262  140.7765  161.7924 C.3     1  UNL1        0.0982
     25 C         143.8956  139.0759  163.6837 C.3     1  UNL1        0.0859
     26 N         144.5607  139.4027  162.3795 N.3     1  UNL1       -0.2943
     27 H         144.1908  138.7498  161.6886 H       1  UNL1        0.1234
@<TRIPOS>BOND
     1    25    26    1
     2    26    24    1
     3    24    21    1
     4    21    22    1
     5    21    20    1
     6    20    19    1
     7    19     1    1
     8     1     2    1
     9     2     3   ar
    10     3     4   ar
    11     4     5   ar
    12     5     6   ar
    13     6     7   ar
    14     7     8    1
    15     8    12    1
    16    12    13   ar
    17    13    14   ar
    18    14    15   ar
    19    15    16   ar
    20    16    17   ar
    21    17    18    1
    22     8     9    1
    23     9    10    2
    24     9    11    2
    25     9     1    1
    26     7     2   ar
    27    17    12   ar
    28    26    27    1
    29    22    23    1
@<TRIPOS>MOLECULE
*****
 27 29 0 0 0
SMALL
GASTEIGER

@<TRIPOS>ATOM
      1 N         138.8054  140.4706  165.0170 N.pl3   1  UNL1       -0.1766
      2 C         138.7071  141.9112  164.6107 C.ar    1  UNL1        0.0853
      3 C         137.9873  142.5890  163.4827 C.ar    1  UNL1        0.0175
      4 C         138.0741  144.0781  163.3249 C.ar    1  UNL1        0.0014
      5 C         138.8808  144.8894  164.2950 C.ar    1  UNL1        0.0014
      6 C         139.6006  144.2116  165.4230 C.ar    1  UNL1        0.0179
      7 C         139.5137  142.7225  165.5808 C.ar    1  UNL1        0.0898
      8 N         140.1106  141.7833  166.5867 N.pl3   1  UNL1       -0.1533
      9 S         139.6728  140.3915  166.2382 S.O2    1  UNL1        0.1339
     10 O         139.4046  138.9189  166.1408 O.2     1  UNL1       -0.1342
     11 O         140.4841  140.0046  167.4390 O.2     1  UNL1       -0.1342
     12 C         140.9907  142.1682  167.7387 C.ar    1  UNL1        0.1023
     13 C         140.3848  142.7318  168.9898 C.ar    1  UNL1        0.0189
     14 C         141.2649  143.1168  170.1418 C.ar    1  UNL1        0.0015
     15 C         142.7510  142.9382  170.0428 C.ar    1  UNL1        0.0024
     16 C         143.3569  142.3746  168.7918 C.ar    1  UNL1        0.0310
     17 C         142.4768  141.9896  167.6397 C.ar    1  UNL1        0.1553
     18 F         143.0827  141.4260  166.3886 F       1  UNL1       -0.2028
     19 C         138.1512  139.3124  164.3237 C.3     1  UNL1        0.1198
     20 C         138.3099  139.1381  162.8423 C.3     1  UNL1        0.0541
     21 C         139.2122  138.0667  162.3056 C.3     1  UNL1        0.1280
     22 O         139.0510  137.5885  160.8931 O.3     1  UNL1       -0.3830
     23 H         138.3243  138.0713  160.4692 H       1  UNL1        0.2104
     24 C         140.2757  137.4737  163.1815 C.3     1  UNL1        0.0982
     25 C         142.5946  138.0633  162.1689 C.3     1  UNL1        0.0859
     26 N         141.5815  137.0384  162.5855 N.3     1  UNL1       -0.2943
     27 H         142.0351  136.4396  163.2756 H       1  UNL1        0.1234
@<TRIPOS>BOND
     1    25    26    1
     2    26    24    1
     3    24    21    1
     4    21    22    1
     5    21    20    1
     6    20    19    1
     7    19     1    1
     8     1     2    1
     9     2     3   ar
    10     3     4   ar
    11     4     5   ar
    12     5     6   ar
    13     6     7   ar
    14     7     8    1
    15     8    12    1
    16    12    13   ar
    17    13    14   ar
    18    14    15   ar
    19    15    16   ar
    20    16    17   ar
    21    17    18    1
    22     8     9    1
    23     9    10    2
    24     9    11    2
    25     9     1    1
    26     7     2   ar
    27    17    12   ar
    28    26    27    1
    29    22    23    1
@<TRIPOS>MOLECULE
*****
 27 29 0 0 0
SMALL
GASTEIGER

@<TRIPOS>ATOM
      1 N         140.0552  140.2227  167.4575 N.pl3   1  UNL1       -0.1766
      2 C         141.1446  140.9556  166.7322 C.ar    1  UNL1        0.0853
      3 C         142.3486  141.7045  167.2216 C.ar    1  UNL1        0.0175
      4 C         143.2812  142.3490  166.2395 C.ar    1  UNL1        0.0014
      5 C         143.0099  142.2447  164.7679 C.ar    1  UNL1        0.0014
      6 C         141.8059  141.4958  164.2785 C.ar    1  UNL1        0.0179
      7 C         140.8733  140.8513  165.2607 C.ar    1  UNL1        0.0898
      8 N         139.6162  140.0539  165.0765 N.pl3   1  UNL1       -0.1533
      9 S         139.1106  139.6654  166.4343 S.O2    1  UNL1        0.1339
     10 O         138.3754  139.1373  167.6304 O.2     1  UNL1       -0.1342
     11 O         138.0123  138.9977  165.6610 O.2     1  UNL1       -0.1342
     12 C         138.9769  139.7061  163.7649 C.ar    1  UNL1        0.1023
     13 C         138.1430  140.7232  163.0439 C.ar    1  UNL1        0.0189
     14 C         137.5037  140.3754  161.7322 C.ar    1  UNL1        0.0015
     15 C         137.6984  139.0104  161.1416 C.ar    1  UNL1        0.0024
     16 C         138.5323  137.9932  161.8626 C.ar    1  UNL1        0.0310
     17 C         139.1716  138.3410  163.1743 C.ar    1  UNL1        0.1553
     18 F         140.0055  137.3238  163.8953 F       1  UNL1       -0.2028
     19 C         139.9321  140.0733  168.9450 C.3     1  UNL1        0.1198
     20 C         141.1646  139.9445  169.7904 C.3     1  UNL1        0.0541
     21 C         141.3874  140.8829  170.9392 C.3     1  UNL1        0.1280
     22 O         140.6822  140.6531  172.2430 O.3     1  UNL1       -0.3830
     23 H         140.1252  139.8620  172.1743 H       1  UNL1        0.2104
     24 C         142.3154  142.0511  170.7841 C.3     1  UNL1        0.0982
     25 C         140.5123  143.6383  169.7941 C.3     1  UNL1        0.0859
     26 N         141.7587  143.4322  170.6030 N.3     1  UNL1       -0.2943
     27 H         141.5680  143.7975  171.5360 H       1  UNL1        0.1234
@<TRIPOS>BOND
     1    25    26    1
     2    26    24    1
     3    24    21    1
     4    21    22    1
     5    21    20    1
     6    20    19    1
     7    19     1    1
     8     1     2    1
     9     2     3   ar
    10     3     4   ar
    11     4     5   ar
    12     5     6   ar
    13     6     7   ar
    14     7     8    1
    15     8    12    1
    16    12    13   ar
    17    13    14   ar
    18    14    15   ar
    19    15    16   ar
    20    16    17   ar
    21    17    18    1
    22     8     9    1
    23     9    10    2
    24     9    11    2
    25     9     1    1
    26     7     2   ar
    27    17    12   ar
    28    26    27    1
    29    22    23    1
@<TRIPOS>MOLECULE
*****
 27 29 0 0 0
SMALL
GASTEIGER

@<TRIPOS>ATOM
      1 N         140.7974  141.4562  163.6434 N.pl3   1  UNL1       -0.1766
      2 C         140.1694  140.1023  163.4932 C.ar    1  UNL1        0.0853
      3 C         139.6368  139.3700  162.2974 C.ar    1  UNL1        0.0175
      4 C         139.0541  137.9971  162.4569 C.ar    1  UNL1        0.0014
      5 C         139.0039  137.3565  163.8123 C.ar    1  UNL1        0.0014
      6 C         139.5365  138.0888  165.0082 C.ar    1  UNL1        0.0179
      7 C         140.1193  139.4617  164.8486 C.ar    1  UNL1        0.0898
      8 N         140.7162  140.4197  165.8364 N.pl3   1  UNL1       -0.1533
      9 S         141.1353  141.6524  165.0916 S.O2    1  UNL1        0.1339
     10 O         141.6475  142.9843  164.6293 O.2     1  UNL1       -0.1342
     11 O         141.5803  142.1270  166.4432 O.2     1  UNL1       -0.1342
     12 C         140.8675  140.1860  167.3104 C.ar    1  UNL1        0.1023
     13 C         139.7313  140.4955  168.2394 C.ar    1  UNL1        0.0189
     14 C         139.8826  140.2619  169.7133 C.ar    1  UNL1        0.0015
     15 C         141.1702  139.7186  170.2583 C.ar    1  UNL1        0.0024
     16 C         142.3065  139.4091  169.3293 C.ar    1  UNL1        0.0310
     17 C         142.1552  139.6428  167.8554 C.ar    1  UNL1        0.1553
     18 F         143.2915  139.3333  166.9264 F       1  UNL1       -0.2028
     19 C         141.0441  142.4411  162.5392 C.3     1  UNL1        0.1198
     20 C         139.9139  142.8715  161.6517 C.3     1  UNL1        0.0541
     21 C         138.8892  143.8420  162.1598 C.3     1  UNL1        0.1280
     22 O         137.4296  143.5095  162.0654 O.3     1  UNL1       -0.3830
     23 H         137.3225  142.6375  161.6542 H       1  UNL1        0.2104
     24 C         139.3242  145.1450  162.7621 C.3     1  UNL1        0.0982
     25 C         138.6240  144.7634  165.2349 C.3     1  UNL1        0.0859
     26 N         139.6340  145.2275  164.2275 N.3     1  UNL1       -0.2943
     27 H         140.4782  144.6762  164.3814 H       1  UNL1        0.1234
@<TRIPOS>BOND
     1    25    26    1
     2    26    24    1
     3    24    21    1
     4    21    22    1
     5    21    20    1
     6    20    19    1
     7    19     1    1
     8     1     2    1
     9     2     3   ar
    10     3     4   ar
    11     4     5   ar
    12     5     6   ar
    13     6     7   ar
    14     7     8    1
    15     8    12    1
    16    12    13   ar
    17    13    14   ar
    18    14    15   ar
    19    15    16   ar
    20    16    17   ar
    21    17    18    1
    22     8     9    1
    23     9    10    2
    24     9    11    2
    25     9     1    1
    26     7     2   ar
    27    17    12   ar
    28    26    27    1
    29    22    23    1
@<TRIPOS>MOLECULE
*****
 27 29 0 0 0
SMALL
GASTEIGER

@<TRIPOS>ATOM
      1 N         140.1355  140.2229  167.5005 N.pl3   1  UNL1       -0.1766
      2 C         141.2082  140.9734  166.7684 C.ar    1  UNL1        0.0853
      3 C         142.4131  141.7263  167.2493 C.ar    1  UNL1        0.0175
      4 C         143.3261  142.3902  166.2616 C.ar    1  UNL1        0.0014
      5 C         143.0342  142.3012  164.7929 C.ar    1  UNL1        0.0014
      6 C         141.8293  141.5482  164.3120 C.ar    1  UNL1        0.0179
      7 C         140.9163  140.8844  165.2997 C.ar    1  UNL1        0.0898
      8 N         139.6632  140.0789  165.1242 N.pl3   1  UNL1       -0.1533
      9 S         139.1806  139.6701  166.4843 S.O2    1  UNL1        0.1339
     10 O         138.4672  139.1217  167.6845 O.2     1  UNL1       -0.1342
     11 O         138.0766  139.0026  165.7191 O.2     1  UNL1       -0.1342
     12 C         139.0078  139.7414  163.8179 C.ar    1  UNL1        0.1023
     13 C         139.2616  138.4112  163.1729 C.ar    1  UNL1        0.0189
     14 C         138.6062  138.0738  161.8665 C.ar    1  UNL1        0.0015
     15 C         137.6968  139.0666  161.2051 C.ar    1  UNL1        0.0024
     16 C         137.4429  140.3968  161.8501 C.ar    1  UNL1        0.0310
     17 C         138.0984  140.7343  163.1564 C.ar    1  UNL1        0.1553
     18 F         137.8445  142.0645  163.8014 F       1  UNL1       -0.2028
     19 C         140.0352  140.0548  168.9876 C.3     1  UNL1        0.1198
     20 C         141.2791  140.0365  169.8259 C.3     1  UNL1        0.0541
     21 C         141.4055  140.9606  171.0007 C.3     1  UNL1        0.1280
     22 O         140.6187  140.6971  172.2503 O.3     1  UNL1       -0.3830
     23 H         140.0832  139.8969  172.1325 H       1  UNL1        0.2104
     24 C         142.3186  142.1483  170.9257 C.3     1  UNL1        0.0982
     25 C         140.3742  143.5868  169.9768 C.3     1  UNL1        0.0859
     26 N         141.8149  143.4477  170.3709 N.3     1  UNL1       -0.2943
     27 H         141.9968  144.1600  171.0780 H       1  UNL1        0.1234
@<TRIPOS>BOND
     1    25    26    1
     2    26    24    1
     3    24    21    1
     4    21    22    1
     5    21    20    1
     6    20    19    1
     7    19     1    1
     8     1     2    1
     9     2     3   ar
    10     3     4   ar
    11     4     5   ar
    12     5     6   ar
    13     6     7   ar
    14     7     8    1
    15     8    12    1
    16    12    13   ar
    17    13    14   ar
    18    14    15   ar
    19    15    16   ar
    20    16    17   ar
    21    17    18    1
    22     8     9    1
    23     9    10    2
    24     9    11    2
    25     9     1    1
    26     7     2   ar
    27    17    12   ar
    28    26    27    1
    29    22    23    1
@<TRIPOS>MOLECULE
*****
 27 29 0 0 0
SMALL
GASTEIGER

@<TRIPOS>ATOM
      1 N         141.3390  140.7263  163.5159 N.pl3   1  UNL1       -0.1766
      2 C         140.0856  141.5138  163.2729 C.ar    1  UNL1        0.0853
      3 C         139.3977  141.9412  162.0104 C.ar    1  UNL1        0.0175
      4 C         138.1295  142.7392  162.0806 C.ar    1  UNL1        0.0014
      5 C         137.5494  143.1098  163.4133 C.ar    1  UNL1        0.0014
      6 C         138.2373  142.6824  164.6758 C.ar    1  UNL1        0.0179
      7 C         139.5055  141.8844  164.6056 C.ar    1  UNL1        0.0898
      8 N         140.4003  141.3259  165.6722 N.pl3   1  UNL1       -0.1533
      9 S         141.5335  140.6102  164.9986 S.O2    1  UNL1        0.1339
     10 O         142.7610  139.8365  164.6185 O.2     1  UNL1       -0.1342
     11 O         141.9846  140.3324  166.4020 O.2     1  UNL1       -0.1342
     12 C         140.1975  141.4597  167.1524 C.ar    1  UNL1        0.1023
     13 C         140.6528  142.6999  167.8627 C.ar    1  UNL1        0.0189
     14 C         140.4500  142.8337  169.3429 C.ar    1  UNL1        0.0015
     15 C         139.7919  141.7273  170.1128 C.ar    1  UNL1        0.0024
     16 C         139.3366  140.4871  169.4025 C.ar    1  UNL1        0.0310
     17 C         139.5394  140.3533  167.9223 C.ar    1  UNL1        0.1553
     18 F         139.0841  139.1130  167.2120 F       1  UNL1       -0.2028
     19 C         142.2398  140.1553  162.4611 C.3     1  UNL1        0.1198
     20 C         141.6797  139.2434  161.4099 C.3     1  UNL1        0.0541
     21 C         140.8755  138.0421  161.8102 C.3     1  UNL1        0.1280
     22 O         141.5498  136.8712  162.4615 O.3     1  UNL1       -0.3830
     23 H         142.4986  137.0523  162.5494 H       1  UNL1        0.2104
     24 C         139.3970  138.0119  161.5591 C.3     1  UNL1        0.0982
     25 C         138.7644  138.1227  164.0766 C.3     1  UNL1        0.0859
     26 N         138.4438  138.4224  162.6422 N.3     1  UNL1       -0.2943
     27 H         138.3342  139.4339  162.5700 H       1  UNL1        0.1234
@<TRIPOS>BOND
     1    25    26    1
     2    26    24    1
     3    24    21    1
     4    21    22    1
     5    21    20    1
     6    20    19    1
     7    19     1    1
     8     1     2    1
     9     2     3   ar
    10     3     4   ar
    11     4     5   ar
    12     5     6   ar
    13     6     7   ar
    14     7     8    1
    15     8    12    1
    16    12    13   ar
    17    13    14   ar
    18    14    15   ar
    19    15    16   ar
    20    16    17   ar
    21    17    18    1
    22     8     9    1
    23     9    10    2
    24     9    11    2
    25     9     1    1
    26     7     2   ar
    27    17    12   ar
    28    26    27    1
    29    22    23    1
@<TRIPOS>MOLECULE
*****
 27 29 0 0 0
SMALL
GASTEIGER

@<TRIPOS>ATOM
      1 N         140.5882  141.1624  167.7556 N.pl3   1  UNL1       -0.1766
      2 C         139.9823  140.1517  166.8274 C.ar    1  UNL1        0.0853
      3 C         138.7601  139.2897  166.9418 C.ar    1  UNL1        0.0175
      4 C         138.3960  138.3531  165.8282 C.ar    1  UNL1        0.0014
      5 C         139.2541  138.2785  164.6002 C.ar    1  UNL1        0.0014
      6 C         140.4763  139.1405  164.4858 C.ar    1  UNL1        0.0179
      7 C         140.8404  140.0771  165.5994 C.ar    1  UNL1        0.0898
      8 N         141.9766  141.0417  165.7686 N.pl3   1  UNL1       -0.1533
      9 S         141.8208  141.7124  167.1012 S.O2    1  UNL1        0.1339
     10 O         141.9272  142.5340  168.3517 O.2     1  UNL1       -0.1342
     11 O         143.0756  142.4342  166.7083 O.2     1  UNL1       -0.1342
     12 C         143.0758  141.2916  164.7790 C.ar    1  UNL1        0.1023
     13 C         143.0437  142.5182  163.9163 C.ar    1  UNL1        0.0189
     14 C         144.1429  142.7681  162.9266 C.ar    1  UNL1        0.0015
     15 C         145.2742  141.7914  162.7997 C.ar    1  UNL1        0.0024
     16 C         145.3063  140.5647  163.6624 C.ar    1  UNL1        0.0310
     17 C         144.2072  140.3148  164.6520 C.ar    1  UNL1        0.1553
     18 F         144.2393  139.0881  165.5147 F       1  UNL1       -0.2028
     19 C         140.0551  141.5542  169.1018 C.3     1  UNL1        0.1198
     20 C         140.1470  140.5965  170.2527 C.3     1  UNL1        0.0541
     21 C         141.4896  140.1780  170.7747 C.3     1  UNL1        0.1280
     22 O         142.0780  140.8681  171.9695 O.3     1  UNL1       -0.3830
     23 H         141.4669  141.5543  172.2801 H       1  UNL1        0.2104
     24 C         142.2436  139.0695  170.1020 C.3     1  UNL1        0.0982
     25 C         143.7368  137.0245  170.6837 C.3     1  UNL1        0.0859
     26 N         143.4726  138.4998  170.7461 N.3     1  UNL1       -0.2943
     27 H         144.2727  138.9608  170.3129 H       1  UNL1        0.1234
@<TRIPOS>BOND
     1    25    26    1
     2    26    24    1
     3    24    21    1
     4    21    22    1
     5    21    20    1
     6    20    19    1
     7    19     1    1
     8     1     2    1
     9     2     3   ar
    10     3     4   ar
    11     4     5   ar
    12     5     6   ar
    13     6     7   ar
    14     7     8    1
    15     8    12    1
    16    12    13   ar
    17    13    14   ar
    18    14    15   ar
    19    15    16   ar
    20    16    17   ar
    21    17    18    1
    22     8     9    1
    23     9    10    2
    24     9    11    2
    25     9     1    1
    26     7     2   ar
    27    17    12   ar
    28    26    27    1
    29    22    23    1
@<TRIPOS>MOLECULE
*****
 27 29 0 0 0
SMALL
GASTEIGER

@<TRIPOS>ATOM
      1 N         139.7817  144.1796  163.2316 N.pl3   1  UNL1       -0.1766
      2 C         141.1531  143.9758  163.8041 C.ar    1  UNL1        0.0853
      3 C         142.3430  144.8834  163.9065 C.ar    1  UNL1        0.0175
      4 C         143.6082  144.3920  164.5450 C.ar    1  UNL1        0.0014
      5 C         143.6835  142.9931  165.0811 C.ar    1  UNL1        0.0014
      6 C         142.4937  142.0856  164.9786 C.ar    1  UNL1        0.0179
      7 C         141.2285  142.5769  164.3401 C.ar    1  UNL1        0.0898
      8 N         139.9036  141.9161  164.0989 N.pl3   1  UNL1       -0.1533
      9 S         139.0095  142.9066  163.4138 S.O2    1  UNL1        0.1339
     10 O         137.9057  143.6641  162.7372 O.2     1  UNL1       -0.1342
     11 O         138.0065  141.7920  163.4546 O.2     1  UNL1       -0.1342
     12 C         139.5373  140.5114  164.4766 C.ar    1  UNL1        0.1023
     13 C         138.8191  140.2445  165.7660 C.ar    1  UNL1        0.0189
     14 C         138.4528  138.8398  166.1437 C.ar    1  UNL1        0.0015
     15 C         138.8047  137.7019  165.2318 C.ar    1  UNL1        0.0024
     16 C         139.5229  137.9688  163.9423 C.ar    1  UNL1        0.0310
     17 C         139.8892  139.3735  163.5647 C.ar    1  UNL1        0.1553
     18 F         140.6075  139.6404  162.2751 F       1  UNL1       -0.2028
     19 C         139.2720  145.4358  162.5895 C.3     1  UNL1        0.1198
     20 C         140.0003  146.0291  161.4200 C.3     1  UNL1        0.0541
     21 C         140.7238  145.1365  160.4557 C.3     1  UNL1        0.1280
     22 O         142.2112  144.9716  160.5575 O.3     1  UNL1       -0.3830
     23 H         142.5461  145.5065  161.2942 H       1  UNL1        0.2104
     24 C         139.9597  144.4088  159.3896 C.3     1  UNL1        0.0982
     25 C         138.3900  142.4524  158.7124 C.3     1  UNL1        0.0859
     26 N         138.9729  143.3445  159.7682 N.3     1  UNL1       -0.2943
     27 H         139.4389  142.7373  160.4424 H       1  UNL1        0.1234
@<TRIPOS>BOND
     1    25    26    1
     2    26    24    1
     3    24    21    1
     4    21    22    1
     5    21    20    1
     6    20    19    1
     7    19     1    1
     8     1     2    1
     9     2     3   ar
    10     3     4   ar
    11     4     5   ar
    12     5     6   ar
    13     6     7   ar
    14     7     8    1
    15     8    12    1
    16    12    13   ar
    17    13    14   ar
    18    14    15   ar
    19    15    16   ar
    20    16    17   ar
    21    17    18    1
    22     8     9    1
    23     9    10    2
    24     9    11    2
    25     9     1    1
    26     7     2   ar
    27    17    12   ar
    28    26    27    1
    29    22    23    1
@<TRIPOS>MOLECULE
*****
 27 29 0 0 0
SMALL
GASTEIGER

@<TRIPOS>ATOM
      1 N         141.5916  140.6821  167.0128 N.pl3   1  UNL1       -0.1766
      2 C         142.5104  140.2408  165.9124 C.ar    1  UNL1        0.0853
      3 C         143.4997  139.1171  165.8210 C.ar    1  UNL1        0.0175
      4 C         144.2936  138.9172  164.5641 C.ar    1  UNL1        0.0014
      5 C         144.0981  139.8410  163.3986 C.ar    1  UNL1        0.0014
      6 C         143.1087  140.9647  163.4900 C.ar    1  UNL1        0.0179
      7 C         142.3149  141.1646  164.7469 C.ar    1  UNL1        0.0898
      8 N         141.2753  142.1769  165.1271 N.pl3   1  UNL1       -0.1533
      9 S         140.8283  141.8787  166.5275 S.O2    1  UNL1        0.1339
     10 O         140.1940  141.8285  167.8859 O.2     1  UNL1       -0.1342
     11 O         139.9324  143.0648  166.3262 O.2     1  UNL1       -0.1342
     12 C         140.7712  143.2916  164.2592 C.ar    1  UNL1        0.1023
     13 C         139.3829  143.2335  163.6945 C.ar    1  UNL1        0.0189
     14 C         138.8788  144.3482  162.8266 C.ar    1  UNL1        0.0015
     15 C         139.7632  145.5212  162.5234 C.ar    1  UNL1        0.0024
     16 C         141.1516  145.5794  163.0880 C.ar    1  UNL1        0.0310
     17 C         141.6557  144.4647  163.9559 C.ar    1  UNL1        0.1553
     18 F         143.0441  144.5229  164.5206 F       1  UNL1       -0.2028
     19 C         141.4594  140.0397  168.3618 C.3     1  UNL1        0.1198
     20 C         142.6873  139.6624  169.1365 C.3     1  UNL1        0.0541
     21 C         142.7969  140.0197  170.5892 C.3     1  UNL1        0.1280
     22 O         143.9309  139.4816  171.4104 O.3     1  UNL1       -0.3830
     23 H         144.4974  138.9247  170.8538 H       1  UNL1        0.2104
     24 C         141.7724  140.9151  171.2205 C.3     1  UNL1        0.0982
     25 C         142.8371  143.1980  170.5843 C.3     1  UNL1        0.0859
     26 N         142.1297  142.3269  171.5798 N.3     1  UNL1       -0.2943
     27 H         141.2579  142.7998  171.8178 H       1  UNL1        0.1234
@<TRIPOS>BOND
     1    25    26    1
     2    26    24    1
     3    24    21    1
     4    21    22    1
     5    21    20    1
     6    20    19    1
     7    19     1    1
     8     1     2    1
     9     2     3   ar
    10     3     4   ar
    11     4     5   ar
    12     5     6   ar
    13     6     7   ar
    14     7     8    1
    15     8    12    1
    16    12    13   ar
    17    13    14   ar
    18    14    15   ar
    19    15    16   ar
    20    16    17   ar
    21    17    18    1
    22     8     9    1
    23     9    10    2
    24     9    11    2
    25     9     1    1
    26     7     2   ar
    27    17    12   ar
    28    26    27    1
    29    22    23    1
