@<TRIPOS>MOLECULE
*****
 36 39 0 0 0
SMALL
GASTEIGER

@<TRIPOS>ATOM
      1 C         139.2883  139.2345  160.0698 C.3     1  UNL1        0.0721
      2 C         142.3107  137.2814  157.3680 C.3     1  UNL1        0.1687
      3 C         142.7274  137.7882  158.7168 C.3     1  UNL1        0.0609
      4 C         141.7199  138.4393  159.6175 C.3     1  UNL1        0.0758
      5 N         140.2957  138.5834  159.1692 N.3     1  UNL1       -0.2724
      6 C         139.8790  138.0766  157.8203 C.3     1  UNL1        0.0758
      7 C         140.8865  137.4256  156.9197 C.3     1  UNL1        0.0609
      8 O         143.3181  136.6303  156.4673 O.3     1  UNL1       -0.4794
      9 C         142.3791  135.5820  153.8179 C.3     1  UNL1        0.0351
     10 C         142.7916  134.6272  154.8988 C.ar    1  UNL1        0.0233
     11 C         143.2611  135.1513  156.2234 C.ar    1  UNL1        0.1352
     12 C         143.6736  134.1966  157.3043 C.ar    1  UNL1        0.0373
     13 C         143.6166  132.7176  157.0604 C.ar    1  UNL1        0.0142
     14 C         143.1470  132.1935  155.7358 C.ar    1  UNL1        0.0789
     15 C         142.7345  133.1483  154.6549 C.ar    1  UNL1        0.0662
     16 CL        142.2650  132.6241  153.3302 Cl      1  UNL1       -0.0818
     17 C         143.0900  130.7145  155.4919 C.1     1  UNL1        0.1013
     18 N         143.0329  129.2356  155.2480 N.1     1  UNL1       -0.1908
     19 C         139.5098  139.2532  161.5533 C.3     1  UNL1        0.0188
     20 C         139.5923  137.9640  162.3156 C.3     1  UNL1        0.0188
     21 C         139.8138  137.9828  163.7990 C.3     1  UNL1        0.0724
     22 N         139.9529  139.2906  164.5201 N.3     1  UNL1       -0.2691
     23 C         139.8705  140.5799  163.7578 C.3     1  UNL1        0.0724
     24 C         139.6490  140.5612  162.2744 C.3     1  UNL1        0.0188
     25 C         140.1745  139.3094  166.0036 C.3     1  UNL1        0.0987
     26 C         139.0007  139.3459  166.9368 C.2     1  UNL1        0.0652
     27 O         137.6248  139.0400  166.4237 O.co2   1  UNL1       -0.5478
     28 O         139.2028  139.6883  168.3831 O.co2   1  UNL1       -0.5478
     29 C         141.5698  139.2916  166.5538 C.3     1  UNL1        0.0480
     30 C         142.7024  139.8501  165.7443 C.ar    1  UNL1       -0.0203
     31 C         142.9225  141.3327  165.6854 C.ar    1  UNL1       -0.0019
     32 C         144.0551  141.8912  164.8759 C.ar    1  UNL1        0.0293
     33 C         144.9676  140.9671  164.1253 C.ar    1  UNL1        0.1401
     34 F         146.1002  141.5256  163.3158 F       1  UNL1       -0.2042
     35 C         144.7475  139.4846  164.1842 C.ar    1  UNL1        0.0293
     36 C         143.6149  138.9261  164.9937 C.ar    1  UNL1       -0.0019
@<TRIPOS>UNITY_ATOM_ATTR
27 1
charge -1
@<TRIPOS>BOND
     1     9    10    1
     2    10    11   ar
     3    11     8    1
     4     8     2    1
     5     2     3    1
     6     3     4    1
     7     4     5    1
     8     5     1    1
     9     1    19    1
    10    19    20    1
    11    20    21    1
    12    21    22    1
    13    22    25    1
    14    25    29    1
    15    29    30    1
    16    30    31   ar
    17    31    32   ar
    18    32    33   ar
    19    33    34    1
    20    33    35   ar
    21    35    36   ar
    22    25    26    1
    23    26    27   ar
    24    26    28   ar
    25    22    23    1
    26    23    24    1
    27     5     6    1
    28     6     7    1
    29    11    12   ar
    30    12    13   ar
    31    13    14   ar
    32    14    17    1
    33    17    18    3
    34    14    15   ar
    35    15    16    1
    36    15    10   ar
    37     7     2    1
    38    24    19    1
    39    36    30   ar
@<TRIPOS>MOLECULE
*****
 36 39 0 0 0
SMALL
GASTEIGER

@<TRIPOS>ATOM
      1 C         144.3124  141.8397  164.4789 C.3     1  UNL1        0.0721
      2 C         143.7977  142.0155  160.0119 C.3     1  UNL1        0.1687
      3 C         143.4968  143.2229  160.8497 C.3     1  UNL1        0.0609
      4 C         143.6684  143.1642  162.3387 C.3     1  UNL1        0.0758
      5 N         144.1409  141.8983  162.9900 N.3     1  UNL1       -0.2724
      6 C         144.4417  140.6909  162.1522 C.3     1  UNL1        0.0758
      7 C         144.2701  140.7495  160.6633 C.3     1  UNL1        0.0609
      8 O         143.6261  142.0741  158.5230 O.3     1  UNL1       -0.4794
      9 C         143.5408  140.5543  155.9378 C.3     1  UNL1        0.0351
     10 C         144.7868  141.2889  156.3352 C.ar    1  UNL1        0.0233
     11 C         144.8294  142.0488  157.6277 C.ar    1  UNL1        0.1352
     12 C         146.0754  142.7834  158.0251 C.ar    1  UNL1        0.0373
     13 C         147.2787  142.7582  157.1299 C.ar    1  UNL1        0.0142
     14 C         147.2361  141.9983  155.8374 C.ar    1  UNL1        0.0789
     15 C         145.9901  141.2636  155.4401 C.ar    1  UNL1        0.0662
     16 CL        145.9475  140.5037  154.1474 Cl      1  UNL1       -0.0818
     17 C         148.4394  141.9729  154.9422 C.1     1  UNL1        0.1013
     18 N         149.6427  141.9477  154.0469 N.1     1  UNL1       -0.1908
     19 C         143.1718  141.4010  165.3487 C.3     1  UNL1        0.0188
     20 C         142.1172  142.3867  165.7562 C.3     1  UNL1        0.0188
     21 C         140.9765  141.9480  166.6259 C.3     1  UNL1        0.0724
     22 N         140.8904  140.5237  167.0881 N.3     1  UNL1       -0.2691
     23 C         141.9451  139.5379  166.6806 C.3     1  UNL1        0.0724
     24 C         143.0858  139.9765  165.8109 C.3     1  UNL1        0.0188
     25 C         139.7498  140.0850  167.9579 C.3     1  UNL1        0.0987
     26 C         139.8071  140.3097  169.4399 C.2     1  UNL1        0.0652
     27 O         138.6403  139.9285  170.3020 O.co2   1  UNL1       -0.5478
     28 O         141.0313  140.9156  170.0598 O.co2   1  UNL1       -0.5478
     29 C         138.5518  139.4217  167.3457 C.3     1  UNL1        0.0480
     30 C         138.5105  139.1634  165.8687 C.ar    1  UNL1       -0.0203
     31 C         138.1010  140.2569  164.9272 C.ar    1  UNL1       -0.0019
     32 C         138.0597  139.9986  163.4502 C.ar    1  UNL1        0.0293
     33 C         138.4280  138.6468  162.9146 C.ar    1  UNL1        0.1401
     34 F         138.3867  138.3885  161.4376 F       1  UNL1       -0.2042
     35 C         138.8376  137.5533  163.8561 C.ar    1  UNL1        0.0293
     36 C         138.8788  137.8116  165.3331 C.ar    1  UNL1       -0.0019
@<TRIPOS>UNITY_ATOM_ATTR
27 1
charge -1
@<TRIPOS>BOND
     1     9    10    1
     2    10    11   ar
     3    11     8    1
     4     8     2    1
     5     2     3    1
     6     3     4    1
     7     4     5    1
     8     5     1    1
     9     1    19    1
    10    19    20    1
    11    20    21    1
    12    21    22    1
    13    22    25    1
    14    25    29    1
    15    29    30    1
    16    30    31   ar
    17    31    32   ar
    18    32    33   ar
    19    33    34    1
    20    33    35   ar
    21    35    36   ar
    22    25    26    1
    23    26    27   ar
    24    26    28   ar
    25    22    23    1
    26    23    24    1
    27     5     6    1
    28     6     7    1
    29    11    12   ar
    30    12    13   ar
    31    13    14   ar
    32    14    17    1
    33    17    18    3
    34    14    15   ar
    35    15    16    1
    36    15    10   ar
    37     7     2    1
    38    24    19    1
    39    36    30   ar
@<TRIPOS>MOLECULE
*****
 36 39 0 0 0
SMALL
GASTEIGER

@<TRIPOS>ATOM
      1 C         143.8670  142.7025  165.1800 C.3     1  UNL1        0.0721
      2 C         143.7674  142.9703  160.6891 C.3     1  UNL1        0.1687
      3 C         144.7985  142.1174  161.3669 C.3     1  UNL1        0.0609
      4 C         144.8317  142.0281  162.8640 C.3     1  UNL1        0.0758
      5 N         143.8338  142.7917  163.6831 N.3     1  UNL1       -0.2724
      6 C         142.8027  143.6447  163.0053 C.3     1  UNL1        0.0758
      7 C         142.7695  143.7339  161.5084 C.3     1  UNL1        0.0609
      8 O         143.7342  143.0596  159.1922 O.3     1  UNL1       -0.4794
      9 C         145.8677  142.3495  157.2061 C.3     1  UNL1        0.0351
     10 C         144.6741  141.4570  157.3761 C.ar    1  UNL1        0.0233
     11 C         143.6074  141.8120  158.3690 C.ar    1  UNL1        0.1352
     12 C         142.4139  140.9194  158.5390 C.ar    1  UNL1        0.0373
     13 C         142.2870  139.6719  157.7159 C.ar    1  UNL1        0.0142
     14 C         143.3537  139.3169  156.7229 C.ar    1  UNL1        0.0789
     15 C         144.5473  140.2094  156.5530 C.ar    1  UNL1        0.0662
     16 CL        145.6140  139.8543  155.5599 Cl      1  UNL1       -0.0818
     17 C         143.2269  138.0693  155.8997 C.1     1  UNL1        0.1013
     18 N         143.1001  136.8218  155.0766 N.1     1  UNL1       -0.1908
     19 C         142.7420  142.0380  165.9169 C.3     1  UNL1        0.0188
     20 C         142.8468  140.5913  166.2991 C.3     1  UNL1        0.0188
     21 C         141.7219  139.9268  167.0359 C.3     1  UNL1        0.0724
     22 N         140.4921  140.7090  167.3906 N.3     1  UNL1       -0.2691
     23 C         140.3873  142.1558  167.0084 C.3     1  UNL1        0.0724
     24 C         141.5123  142.8203  166.2716 C.3     1  UNL1        0.0188
     25 C         139.3672  140.0446  168.1275 C.3     1  UNL1        0.0987
     26 C         139.2159  140.2473  169.6060 C.2     1  UNL1        0.0652
     27 O         140.3258  140.8773  170.3941 O.co2   1  UNL1       -0.5478
     28 O         137.9547  139.8198  170.2964 O.co2   1  UNL1       -0.5478
     29 C         138.3935  139.1775  167.3858 C.3     1  UNL1        0.0480
     30 C         138.4601  139.0845  165.8902 C.ar    1  UNL1       -0.0203
     31 C         138.0427  140.2526  165.0468 C.ar    1  UNL1       -0.0019
     32 C         138.1093  140.1596  163.5512 C.ar    1  UNL1        0.0293
     33 C         138.5933  138.8986  162.8989 C.ar    1  UNL1        0.1401
     34 F         138.6599  138.8056  161.4033 F       1  UNL1       -0.2042
     35 C         139.0107  137.7305  163.7423 C.ar    1  UNL1        0.0293
     36 C         138.9441  137.8235  165.2379 C.ar    1  UNL1       -0.0019
@<TRIPOS>UNITY_ATOM_ATTR
27 1
charge -1
@<TRIPOS>BOND
     1     9    10    1
     2    10    11   ar
     3    11     8    1
     4     8     2    1
     5     2     3    1
     6     3     4    1
     7     4     5    1
     8     5     1    1
     9     1    19    1
    10    19    20    1
    11    20    21    1
    12    21    22    1
    13    22    25    1
    14    25    29    1
    15    29    30    1
    16    30    31   ar
    17    31    32   ar
    18    32    33   ar
    19    33    34    1
    20    33    35   ar
    21    35    36   ar
    22    25    26    1
    23    26    27   ar
    24    26    28   ar
    25    22    23    1
    26    23    24    1
    27     5     6    1
    28     6     7    1
    29    11    12   ar
    30    12    13   ar
    31    13    14   ar
    32    14    17    1
    33    17    18    3
    34    14    15   ar
    35    15    16    1
    36    15    10   ar
    37     7     2    1
    38    24    19    1
    39    36    30   ar
@<TRIPOS>MOLECULE
*****
 36 39 0 0 0
SMALL
GASTEIGER

@<TRIPOS>ATOM
      1 C         138.1755  139.0660  161.2326 C.3     1  UNL1        0.0721
      2 C         138.7428  139.2186  165.6941 C.3     1  UNL1        0.1687
      3 C         138.2088  140.4155  164.9646 C.3     1  UNL1        0.0609
      4 C         138.0197  140.3647  163.4774 C.3     1  UNL1        0.0758
      5 N         138.3646  139.1169  162.7198 N.3     1  UNL1       -0.2724
      6 C         138.8985  137.9199  163.4493 C.3     1  UNL1        0.0758
      7 C         139.0876  137.9707  164.9364 C.3     1  UNL1        0.0609
      8 O         138.9319  139.2694  167.1812 O.3     1  UNL1       -0.4794
      9 C         138.7773  140.3554  169.9735 C.3     1  UNL1        0.0351
     10 C         140.0222  140.5522  169.1601 C.ar    1  UNL1        0.0233
     11 C         140.0995  140.0092  167.7640 C.ar    1  UNL1        0.1352
     12 C         141.3443  140.2059  166.9506 C.ar    1  UNL1        0.0373
     13 C         142.5119  140.9456  167.5333 C.ar    1  UNL1        0.0142
     14 C         142.4346  141.4886  168.9294 C.ar    1  UNL1        0.0789
     15 C         141.1897  141.2919  169.7428 C.ar    1  UNL1        0.0662
     16 CL        141.1124  141.8349  171.1390 Cl      1  UNL1       -0.0818
     17 C         143.6022  142.2284  169.5121 C.1     1  UNL1        0.1013
     18 N         144.7697  142.9681  170.0948 N.1     1  UNL1       -0.1908
     19 C         138.8613  140.0704  160.3546 C.3     1  UNL1        0.0188
     20 C         140.2987  139.8753  159.9728 C.3     1  UNL1        0.0188
     21 C         140.9845  140.8797  159.0948 C.3     1  UNL1        0.0724
     22 N         140.2329  142.0791  158.5986 N.3     1  UNL1       -0.2691
     23 C         138.7954  142.2743  158.9803 C.3     1  UNL1        0.0724
     24 C         138.1096  141.2699  159.8583 C.3     1  UNL1        0.0188
     25 C         140.9187  143.0835  157.7205 C.3     1  UNL1        0.0987
     26 C         141.0176  142.8444  156.2430 C.2     1  UNL1        0.0652
     27 O         142.0963  143.5152  155.4452 O.co2   1  UNL1       -0.5478
     28 O         140.0378  141.9345  155.5633 O.co2   1  UNL1       -0.5478
     29 C         141.5056  144.3269  158.3200 C.3     1  UNL1        0.0480
     30 C         141.3934  144.5734  159.7954 C.ar    1  UNL1       -0.0203
     31 C         140.3197  145.4769  160.3253 C.ar    1  UNL1       -0.0019
     32 C         140.2074  145.7234  161.8006 C.ar    1  UNL1        0.0293
     33 C         141.1688  145.0663  162.7461 C.ar    1  UNL1        0.1401
     34 F         141.0565  145.3128  164.2214 F       1  UNL1       -0.2042
     35 C         142.2425  144.1628  162.2162 C.ar    1  UNL1        0.0293
     36 C         142.3547  143.9163  160.7408 C.ar    1  UNL1       -0.0019
@<TRIPOS>UNITY_ATOM_ATTR
27 1
charge -1
@<TRIPOS>BOND
     1     9    10    1
     2    10    11   ar
     3    11     8    1
     4     8     2    1
     5     2     3    1
     6     3     4    1
     7     4     5    1
     8     5     1    1
     9     1    19    1
    10    19    20    1
    11    20    21    1
    12    21    22    1
    13    22    25    1
    14    25    29    1
    15    29    30    1
    16    30    31   ar
    17    31    32   ar
    18    32    33   ar
    19    33    34    1
    20    33    35   ar
    21    35    36   ar
    22    25    26    1
    23    26    27   ar
    24    26    28   ar
    25    22    23    1
    26    23    24    1
    27     5     6    1
    28     6     7    1
    29    11    12   ar
    30    12    13   ar
    31    13    14   ar
    32    14    17    1
    33    17    18    3
    34    14    15   ar
    35    15    16    1
    36    15    10   ar
    37     7     2    1
    38    24    19    1
    39    36    30   ar
@<TRIPOS>MOLECULE
*****
 36 39 0 0 0
SMALL
GASTEIGER

@<TRIPOS>ATOM
      1 C         139.3235  139.1883  159.8210 C.3     1  UNL1        0.0721
      2 C         142.3074  137.1739  157.1213 C.3     1  UNL1        0.1687
      3 C         140.8666  137.2615  156.7135 C.3     1  UNL1        0.0609
      4 C         139.8719  137.9330  157.6135 C.3     1  UNL1        0.0758
      5 N         140.3181  138.5168  158.9211 N.3     1  UNL1       -0.2724
      6 C         141.7590  138.4292  159.3289 C.3     1  UNL1        0.0758
      7 C         142.7536  137.7578  158.4290 C.3     1  UNL1        0.0609
      8 O         143.3020  136.5025  156.2214 O.3     1  UNL1       -0.4794
      9 C         143.5810  133.9731  157.8103 C.3     1  UNL1        0.0351
     10 C         143.1116  133.9167  156.3867 C.ar    1  UNL1        0.0233
     11 C         142.9721  135.1813  155.5923 C.ar    1  UNL1        0.1352
     12 C         142.5027  135.1249  154.1687 C.ar    1  UNL1        0.0373
     13 C         142.1728  133.8038  153.5396 C.ar    1  UNL1        0.0142
     14 C         142.3122  132.5391  154.3341 C.ar    1  UNL1        0.0789
     15 C         142.7816  132.5956  155.7576 C.ar    1  UNL1        0.0662
     16 CL        142.9211  131.3308  156.5521 Cl      1  UNL1       -0.0818
     17 C         141.9823  131.2179  153.7050 C.1     1  UNL1        0.1013
     18 N         141.6523  129.8968  153.0759 N.1     1  UNL1       -0.1908
     19 C         139.5526  139.2168  161.3031 C.3     1  UNL1        0.0188
     20 C         139.5237  137.9409  162.0912 C.3     1  UNL1        0.0188
     21 C         139.7528  137.9694  163.5733 C.3     1  UNL1        0.0724
     22 N         140.0108  139.2739  164.2674 N.3     1  UNL1       -0.2691
     23 C         140.0397  140.5499  163.4793 C.3     1  UNL1        0.0724
     24 C         139.8106  140.5214  161.9972 C.3     1  UNL1        0.0188
     25 C         140.2400  139.3024  165.7495 C.3     1  UNL1        0.0987
     26 C         139.0775  139.4544  166.6853 C.2     1  UNL1        0.0652
     27 O         137.6916  139.1176  166.2207 O.co2   1  UNL1       -0.5478
     28 O         139.3010  139.9431  168.0857 O.co2   1  UNL1       -0.5478
     29 C         141.6314  139.1790  166.2958 C.3     1  UNL1        0.0480
     30 C         142.7808  139.8142  165.5710 C.ar    1  UNL1       -0.0203
     31 C         143.7302  138.9644  164.7796 C.ar    1  UNL1       -0.0019
     32 C         144.8796  139.5996  164.0548 C.ar    1  UNL1        0.0293
     33 C         145.0796  141.0847  164.1214 C.ar    1  UNL1        0.1401
     34 F         146.2290  141.7200  163.3966 F       1  UNL1       -0.2042
     35 C         144.1302  141.9346  164.9128 C.ar    1  UNL1        0.0293
     36 C         142.9808  141.2993  165.6376 C.ar    1  UNL1       -0.0019
@<TRIPOS>UNITY_ATOM_ATTR
27 1
charge -1
@<TRIPOS>BOND
     1     9    10    1
     2    10    11   ar
     3    11     8    1
     4     8     2    1
     5     2     3    1
     6     3     4    1
     7     4     5    1
     8     5     1    1
     9     1    19    1
    10    19    20    1
    11    20    21    1
    12    21    22    1
    13    22    25    1
    14    25    29    1
    15    29    30    1
    16    30    31   ar
    17    31    32   ar
    18    32    33   ar
    19    33    34    1
    20    33    35   ar
    21    35    36   ar
    22    25    26    1
    23    26    27   ar
    24    26    28   ar
    25    22    23    1
    26    23    24    1
    27     5     6    1
    28     6     7    1
    29    11    12   ar
    30    12    13   ar
    31    13    14   ar
    32    14    17    1
    33    17    18    3
    34    14    15   ar
    35    15    16    1
    36    15    10   ar
    37     7     2    1
    38    24    19    1
    39    36    30   ar
@<TRIPOS>MOLECULE
*****
 36 39 0 0 0
SMALL
GASTEIGER

@<TRIPOS>ATOM
      1 C         144.4227  141.6998  164.5060 C.3     1  UNL1        0.0721
      2 C         144.0630  141.3297  160.0357 C.3     1  UNL1        0.1687
      3 C         144.2791  142.6755  160.6619 C.3     1  UNL1        0.0609
      4 C         144.3990  142.7988  162.1520 C.3     1  UNL1        0.0758
      5 N         144.3028  141.5764  163.0159 N.3     1  UNL1       -0.2724
      6 C         144.0867  140.2306  162.3897 C.3     1  UNL1        0.0758
      7 C         143.9668  140.1072  160.8997 C.3     1  UNL1        0.0609
      8 O         143.9431  141.2063  158.5456 O.3     1  UNL1       -0.4794
      9 C         141.1868  142.3605  158.2794 C.3     1  UNL1        0.0351
     10 C         141.4621  140.9612  157.8143 C.ar    1  UNL1        0.0233
     11 C         142.8402  140.3841  157.9474 C.ar    1  UNL1        0.1352
     12 C         143.1155  138.9849  157.4823 C.ar    1  UNL1        0.0373
     13 C         142.0127  138.1627  156.8841 C.ar    1  UNL1        0.0142
     14 C         140.6346  138.7398  156.7511 C.ar    1  UNL1        0.0789
     15 C         140.3593  140.1391  157.2162 C.ar    1  UNL1        0.0662
     16 CL        138.9811  140.7162  157.0831 Cl      1  UNL1       -0.0818
     17 C         139.5317  137.9177  156.1529 C.1     1  UNL1        0.1013
     18 N         138.4289  137.0956  155.5547 N.1     1  UNL1       -0.1908
     19 C         143.2831  141.2819  165.3873 C.3     1  UNL1        0.0188
     20 C         142.2303  142.2777  165.7747 C.3     1  UNL1        0.0188
     21 C         141.0907  141.8598  166.6560 C.3     1  UNL1        0.0724
     22 N         141.0039  140.4462  167.1499 N.3     1  UNL1       -0.2691
     23 C         142.0566  139.4503  166.7625 C.3     1  UNL1        0.0724
     24 C         143.1962  139.8682  165.8812 C.3     1  UNL1        0.0188
     25 C         139.8643  140.0283  168.0312 C.3     1  UNL1        0.0987
     26 C         139.9617  140.2052  169.5176 C.2     1  UNL1        0.0652
     27 O         139.1102  141.2287  170.2085 O.co2   1  UNL1       -0.5478
     28 O         140.9107  139.3586  170.3130 O.co2   1  UNL1       -0.5478
     29 C         138.6273  139.4336  167.4261 C.3     1  UNL1        0.0480
     30 C         138.5452  139.2208  165.9436 C.ar    1  UNL1       -0.0203
     31 C         138.1042  140.3407  165.0485 C.ar    1  UNL1       -0.0019
     32 C         138.0222  140.1280  163.5659 C.ar    1  UNL1        0.0293
     33 C         138.3811  138.7954  162.9784 C.ar    1  UNL1        0.1401
     34 F         138.2991  138.5826  161.4959 F       1  UNL1       -0.2042
     35 C         138.8221  137.6755  163.8735 C.ar    1  UNL1        0.0293
     36 C         138.9042  137.8882  165.3561 C.ar    1  UNL1       -0.0019
@<TRIPOS>UNITY_ATOM_ATTR
27 1
charge -1
@<TRIPOS>BOND
     1     9    10    1
     2    10    11   ar
     3    11     8    1
     4     8     2    1
     5     2     3    1
     6     3     4    1
     7     4     5    1
     8     5     1    1
     9     1    19    1
    10    19    20    1
    11    20    21    1
    12    21    22    1
    13    22    25    1
    14    25    29    1
    15    29    30    1
    16    30    31   ar
    17    31    32   ar
    18    32    33   ar
    19    33    34    1
    20    33    35   ar
    21    35    36   ar
    22    25    26    1
    23    26    27   ar
    24    26    28   ar
    25    22    23    1
    26    23    24    1
    27     5     6    1
    28     6     7    1
    29    11    12   ar
    30    12    13   ar
    31    13    14   ar
    32    14    17    1
    33    17    18    3
    34    14    15   ar
    35    15    16    1
    36    15    10   ar
    37     7     2    1
    38    24    19    1
    39    36    30   ar
@<TRIPOS>MOLECULE
*****
 36 39 0 0 0
SMALL
GASTEIGER

@<TRIPOS>ATOM
      1 C         143.9138  142.6072  164.7287 C.3     1  UNL1        0.0721
      2 C         143.4505  143.0953  160.2793 C.3     1  UNL1        0.1687
      3 C         144.4855  142.1579  160.8272 C.3     1  UNL1        0.0609
      4 C         144.6399  141.9953  162.3104 C.3     1  UNL1        0.0758
      5 N         143.7594  142.7699  163.2456 N.3     1  UNL1       -0.2724
      6 C         142.7244  143.7073  162.6977 C.3     1  UNL1        0.0758
      7 C         142.5700  143.8700  161.2146 C.3     1  UNL1        0.0609
      8 O         143.2960  143.2580  158.7962 O.3     1  UNL1       -0.4794
      9 C         142.2655  145.8141  157.6111 C.3     1  UNL1        0.0351
     10 C         141.4116  144.5810  157.5926 C.ar    1  UNL1        0.0233
     11 C         141.9268  143.3030  158.1852 C.ar    1  UNL1        0.1352
     12 C         141.0729  142.0699  158.1667 C.ar    1  UNL1        0.0373
     13 C         139.7037  142.1149  157.5557 C.ar    1  UNL1        0.0142
     14 C         139.1885  143.3929  156.9632 C.ar    1  UNL1        0.0789
     15 C         140.0424  144.6260  156.9817 C.ar    1  UNL1        0.0662
     16 CL        139.5271  145.9040  156.3891 Cl      1  UNL1       -0.0818
     17 C         137.8193  143.4379  156.3522 C.1     1  UNL1        0.1013
     18 N         136.4501  143.4828  155.7412 N.1     1  UNL1       -0.1908
     19 C         142.8150  141.9778  165.5326 C.3     1  UNL1        0.0188
     20 C         141.6126  142.7860  165.9213 C.3     1  UNL1        0.0188
     21 C         140.5138  142.1565  166.7253 C.3     1  UNL1        0.0724
     22 N         140.6173  140.7189  167.1405 N.3     1  UNL1       -0.2691
     23 C         141.8197  139.9106  166.7518 C.3     1  UNL1        0.0724
     24 C         142.9185  140.5401  165.9479 C.3     1  UNL1        0.0188
     25 C         139.5184  140.0894  167.9444 C.3     1  UNL1        0.0987
     26 C         139.4440  140.3223  169.4244 C.2     1  UNL1        0.0652
     27 O         140.5970  140.9588  170.1424 O.co2   1  UNL1       -0.5478
     28 O         138.2167  139.9187  170.1864 O.co2   1  UNL1       -0.5478
     29 C         138.4940  139.2272  167.2685 C.3     1  UNL1        0.0480
     30 C         138.4878  139.1016  165.7737 C.ar    1  UNL1       -0.0203
     31 C         138.0109  140.2442  164.9271 C.ar    1  UNL1       -0.0019
     32 C         138.0047  140.1186  163.4323 C.ar    1  UNL1        0.0293
     33 C         138.4755  138.8504  162.7843 C.ar    1  UNL1        0.1401
     34 F         138.4693  138.7248  161.2896 F       1  UNL1       -0.2042
     35 C         138.9524  137.7078  163.6310 C.ar    1  UNL1        0.0293
     36 C         138.9586  137.8334  165.1257 C.ar    1  UNL1       -0.0019
@<TRIPOS>UNITY_ATOM_ATTR
27 1
charge -1
@<TRIPOS>BOND
     1     9    10    1
     2    10    11   ar
     3    11     8    1
     4     8     2    1
     5     2     3    1
     6     3     4    1
     7     4     5    1
     8     5     1    1
     9     1    19    1
    10    19    20    1
    11    20    21    1
    12    21    22    1
    13    22    25    1
    14    25    29    1
    15    29    30    1
    16    30    31   ar
    17    31    32   ar
    18    32    33   ar
    19    33    34    1
    20    33    35   ar
    21    35    36   ar
    22    25    26    1
    23    26    27   ar
    24    26    28   ar
    25    22    23    1
    26    23    24    1
    27     5     6    1
    28     6     7    1
    29    11    12   ar
    30    12    13   ar
    31    13    14   ar
    32    14    17    1
    33    17    18    3
    34    14    15   ar
    35    15    16    1
    36    15    10   ar
    37     7     2    1
    38    24    19    1
    39    36    30   ar
@<TRIPOS>MOLECULE
*****
 36 39 0 0 0
SMALL
GASTEIGER

@<TRIPOS>ATOM
      1 C         137.5485  140.8231  163.2966 C.3     1  UNL1        0.0721
      2 C         139.7602  141.8513  159.5150 C.3     1  UNL1        0.1687
      3 C         138.8714  142.8702  160.1647 C.3     1  UNL1        0.0609
      4 C         138.1342  142.5274  161.4253 C.3     1  UNL1        0.0758
      5 N         138.2857  141.1658  162.0361 N.3     1  UNL1       -0.2724
      6 C         139.1745  140.1470  161.3864 C.3     1  UNL1        0.0758
      7 C         139.9117  140.4897  160.1259 C.3     1  UNL1        0.0609
      8 O         140.4974  142.1941  158.2545 O.3     1  UNL1       -0.4794
      9 C         138.2788  142.4198  156.2478 C.3     1  UNL1        0.0351
     10 C         139.1295  143.6144  156.5629 C.ar    1  UNL1        0.0233
     11 C         140.2388  143.5016  157.5662 C.ar    1  UNL1        0.1352
     12 C         141.0895  144.6961  157.8813 C.ar    1  UNL1        0.0373
     13 C         140.8309  146.0036  157.1931 C.ar    1  UNL1        0.0142
     14 C         139.7216  146.1164  156.1898 C.ar    1  UNL1        0.0789
     15 C         138.8709  144.9218  155.8747 C.ar    1  UNL1        0.0662
     16 CL        137.7615  145.0348  154.8713 Cl      1  UNL1       -0.0818
     17 C         139.4629  147.4239  155.5015 C.1     1  UNL1        0.1013
     18 N         139.2043  148.7313  154.8132 N.1     1  UNL1       -0.1908
     19 C         138.2682  140.8327  164.6127 C.3     1  UNL1        0.0188
     20 C         138.2832  139.6008  165.4683 C.3     1  UNL1        0.0188
     21 C         139.0029  139.6104  166.7843 C.3     1  UNL1        0.0724
     22 N         139.7076  140.8519  167.2447 N.3     1  UNL1       -0.2691
     23 C         139.6926  142.0839  166.3891 C.3     1  UNL1        0.0724
     24 C         138.9729  142.0743  165.0730 C.3     1  UNL1        0.0188
     25 C         140.4273  140.8616  168.5608 C.3     1  UNL1        0.0987
     26 C         139.6546  141.0169  169.8370 C.2     1  UNL1        0.0652
     27 O         138.6511  139.9765  170.2376 O.co2   1  UNL1       -0.5478
     28 O         139.8854  142.2127  170.7127 O.co2   1  UNL1       -0.5478
     29 C         141.9197  140.7159  168.6005 C.3     1  UNL1        0.0480
     30 C         142.6655  140.2970  167.3683 C.ar    1  UNL1       -0.0203
     31 C         143.0539  141.3202  166.3426 C.ar    1  UNL1       -0.0019
     32 C         143.7997  140.9013  165.1104 C.ar    1  UNL1        0.0293
     33 C         144.1571  139.4592  164.9039 C.ar    1  UNL1        0.1401
     34 F         144.9029  139.0403  163.6717 F       1  UNL1       -0.2042
     35 C         143.7687  138.4360  165.9297 C.ar    1  UNL1        0.0293
     36 C         143.0229  138.8549  167.1619 C.ar    1  UNL1       -0.0019
@<TRIPOS>UNITY_ATOM_ATTR
27 1
charge -1
@<TRIPOS>BOND
     1     9    10    1
     2    10    11   ar
     3    11     8    1
     4     8     2    1
     5     2     3    1
     6     3     4    1
     7     4     5    1
     8     5     1    1
     9     1    19    1
    10    19    20    1
    11    20    21    1
    12    21    22    1
    13    22    25    1
    14    25    29    1
    15    29    30    1
    16    30    31   ar
    17    31    32   ar
    18    32    33   ar
    19    33    34    1
    20    33    35   ar
    21    35    36   ar
    22    25    26    1
    23    26    27   ar
    24    26    28   ar
    25    22    23    1
    26    23    24    1
    27     5     6    1
    28     6     7    1
    29    11    12   ar
    30    12    13   ar
    31    13    14   ar
    32    14    17    1
    33    17    18    3
    34    14    15   ar
    35    15    16    1
    36    15    10   ar
    37     7     2    1
    38    24    19    1
    39    36    30   ar
@<TRIPOS>MOLECULE
*****
 36 39 0 0 0
SMALL
GASTEIGER

@<TRIPOS>ATOM
      1 C         145.1127  140.8987  163.4370 C.3     1  UNL1        0.0721
      2 C         143.7533  141.0824  159.1512 C.3     1  UNL1        0.1687
      3 C         144.3122  142.3065  159.8139 C.3     1  UNL1        0.0609
      4 C         144.7653  142.2452  161.2425 C.3     1  UNL1        0.0758
      5 N         144.6596  140.9599  162.0084 N.3     1  UNL1       -0.2724
      6 C         144.1007  139.7358  161.3458 C.3     1  UNL1        0.0758
      7 C         143.6475  139.7970  159.9172 C.3     1  UNL1        0.0609
      8 O         143.3001  141.1436  157.7227 O.3     1  UNL1       -0.4794
      9 C         142.6260  143.4714  155.9544 C.3     1  UNL1        0.0351
     10 C         143.9199  142.7364  155.7659 C.ar    1  UNL1        0.0233
     11 C         144.2570  141.5725  156.6500 C.ar    1  UNL1        0.1352
     12 C         145.5509  140.8374  156.4615 C.ar    1  UNL1        0.0373
     13 C         146.5077  141.2662  155.3889 C.ar    1  UNL1        0.0142
     14 C         146.1707  142.4301  154.5048 C.ar    1  UNL1        0.0789
     15 C         144.8768  143.1652  154.6933 C.ar    1  UNL1        0.0662
     16 CL        144.5397  144.3291  153.8091 Cl      1  UNL1       -0.0818
     17 C         147.1275  142.8590  153.4321 C.1     1  UNL1        0.1013
     18 N         148.0844  143.2878  152.3595 N.1     1  UNL1       -0.1908
     19 C         144.1143  140.6620  164.5311 C.3     1  UNL1        0.0188
     20 C         143.3420  141.8133  165.1037 C.3     1  UNL1        0.0188
     21 C         142.3436  141.5766  166.1978 C.3     1  UNL1        0.0724
     22 N         142.1173  140.1885  166.7193 N.3     1  UNL1       -0.2691
     23 C         142.8896  139.0370  166.1466 C.3     1  UNL1        0.0724
     24 C         143.8881  139.2738  165.0526 C.3     1  UNL1        0.0188
     25 C         141.1189  139.9518  167.8133 C.3     1  UNL1        0.0987
     26 C         141.5862  139.7497  169.2244 C.2     1  UNL1        0.0652
     27 O         143.0479  139.8350  169.5498 O.co2   1  UNL1       -0.5478
     28 O         140.5917  139.4623  170.3099 O.co2   1  UNL1       -0.5478
     29 C         139.6532  139.9171  167.4965 C.3     1  UNL1        0.0480
     30 C         139.1956  139.6662  166.0902 C.ar    1  UNL1       -0.0203
     31 C         139.3197  138.2952  165.4944 C.ar    1  UNL1       -0.0019
     32 C         138.8621  138.0443  164.0882 C.ar    1  UNL1        0.0293
     33 C         138.2803  139.1644  163.2776 C.ar    1  UNL1        0.1401
     34 F         137.8227  138.9134  161.8713 F       1  UNL1       -0.2042
     35 C         138.1562  140.5353  163.8734 C.ar    1  UNL1        0.0293
     36 C         138.6138  140.7862  165.2797 C.ar    1  UNL1       -0.0019
@<TRIPOS>UNITY_ATOM_ATTR
27 1
charge -1
@<TRIPOS>BOND
     1     9    10    1
     2    10    11   ar
     3    11     8    1
     4     8     2    1
     5     2     3    1
     6     3     4    1
     7     4     5    1
     8     5     1    1
     9     1    19    1
    10    19    20    1
    11    20    21    1
    12    21    22    1
    13    22    25    1
    14    25    29    1
    15    29    30    1
    16    30    31   ar
    17    31    32   ar
    18    32    33   ar
    19    33    34    1
    20    33    35   ar
    21    35    36   ar
    22    25    26    1
    23    26    27   ar
    24    26    28   ar
    25    22    23    1
    26    23    24    1
    27     5     6    1
    28     6     7    1
    29    11    12   ar
    30    12    13   ar
    31    13    14   ar
    32    14    17    1
    33    17    18    3
    34    14    15   ar
    35    15    16    1
    36    15    10   ar
    37     7     2    1
    38    24    19    1
    39    36    30   ar
