@<TRIPOS>MOLECULE
*****
 26 28 0 0 0
SMALL
GASTEIGER

@<TRIPOS>ATOM
      1 C         140.9870  139.0304  164.5736 C.2     1  UNL1        0.2685
      2 O         141.8452  137.9732  165.2026 O.2     1  UNL1       -0.2682
      3 N         140.9012  140.3937  165.1934 N.am    1  UNL1       -0.2723
      4 C         140.0430  141.4510  164.5643 C.3     1  UNL1        0.0761
      5 C         140.6347  142.4014  163.5661 C.3     1  UNL1        0.0212
      6 C         139.7764  143.4586  162.9370 C.3     1  UNL1        0.0172
      7 C         138.3265  143.5654  163.3063 C.3     1  UNL1        0.0509
      8 N         137.4683  144.6226  162.6772 N.3     1  UNL1       -0.3222
      9 C         137.7348  142.6150  164.3046 C.3     1  UNL1        0.0172
     10 C         138.5931  141.5578  164.9336 C.3     1  UNL1        0.0212
     11 H         138.0294  145.1745  162.0284 H       1  UNL1        0.1188
     12 H         137.0915  145.2314  163.4037 H       1  UNL1        0.1188
     13 C         139.6704  138.4898  159.4887 C.3     1  UNL1        0.1321
     14 N         139.6094  138.4760  160.9874 N.ar    1  UNL1       -0.3057
     15 C         138.4423  138.0313  161.8183 C.ar    1  UNL1        0.1787
     16 N         138.8163  138.1849  163.2627 N.ar    1  UNL1       -0.2192
     17 C         140.2145  138.7245  163.3247 C.ar    1  UNL1        0.1535
     18 C         140.7047  138.9044  161.9185 C.ar    1  UNL1        0.1012
     19 C         141.6737  140.6997  166.4423 C.3     1  UNL1        0.1204
     20 C         140.9489  141.0974  167.6939 C.ar    1  UNL1       -0.0015
     21 C         140.1033  140.0947  168.4217 C.ar    1  UNL1       -0.0026
     22 C         139.3786  140.4924  169.6733 C.ar    1  UNL1        0.0006
     23 C         139.4995  141.8928  170.1972 C.ar    1  UNL1        0.0114
     24 C         140.3451  142.8954  169.4695 C.ar    1  UNL1        0.0574
     25 CL        140.4660  144.2957  169.9933 Cl      1  UNL1       -0.0823
     26 C         141.0698  142.4977  168.2178 C.ar    1  UNL1        0.0088
@<TRIPOS>BOND
     1    13    14    1
     2    14    15   ar
     3    15    16   ar
     4    16    17   ar
     5    17     1    1
     6     1     2    2
     7     1     3   am
     8     3    19    1
     9    19    20    1
    10    20    21   ar
    11    21    22   ar
    12    22    23   ar
    13    23    24   ar
    14    24    25    1
    15    24    26   ar
    16     4     3    1
    17     4     5    1
    18     5     6    1
    19     6     7    1
    20     7     8    1
    21     7     9    1
    22     9    10    1
    23    17    18   ar
    24    18    14   ar
    25    26    20   ar
    26    10     4    1
    27     8    11    1
    28     8    12    1
@<TRIPOS>MOLECULE
*****
 26 28 0 0 0
SMALL
GASTEIGER

@<TRIPOS>ATOM
      1 C         142.0193  139.3684  168.0217 C.2     1  UNL1        0.2685
      2 O         143.1972  138.7267  168.6930 O.2     1  UNL1       -0.2682
      3 N         141.8294  139.2237  166.5408 N.am    1  UNL1       -0.2723
      4 C         140.6515  139.8654  165.8694 C.3     1  UNL1        0.0761
      5 C         139.3840  139.0874  165.6740 C.3     1  UNL1        0.0212
      6 C         138.2061  139.7292  165.0026 C.3     1  UNL1        0.0172
      7 C         138.2957  141.1489  164.5267 C.3     1  UNL1        0.0509
      8 N         137.1177  141.7906  163.8554 N.3     1  UNL1       -0.3222
      9 C         139.5632  141.9268  164.7222 C.3     1  UNL1        0.0172
     10 C         140.7411  141.2851  165.3935 C.3     1  UNL1        0.0212
     11 H         136.3484  141.1226  163.8070 H       1  UNL1        0.1188
     12 H         137.3787  142.0775  162.9120 H       1  UNL1        0.1188
     13 C         139.7496  143.2593  170.7768 C.3     1  UNL1        0.1321
     14 N         139.9880  141.9433  170.0976 N.ar    1  UNL1       -0.3057
     15 C         139.0335  140.7868  170.0561 C.ar    1  UNL1        0.1787
     16 N         139.6783  139.6815  169.2734 N.ar    1  UNL1       -0.2192
     17 C         141.0312  140.1548  168.8312 C.ar    1  UNL1        0.1535
     18 C         141.2227  141.5527  169.3405 C.ar    1  UNL1        0.1012
     19 C         142.8174  138.4373  165.7313 C.3     1  UNL1        0.1204
     20 C         143.3619  139.0053  164.4541 C.ar    1  UNL1       -0.0015
     21 C         142.9043  138.4580  163.1347 C.ar    1  UNL1       -0.0026
     22 C         143.4487  139.0260  161.8577 C.ar    1  UNL1        0.0006
     23 C         144.4507  140.1414  161.9001 C.ar    1  UNL1        0.0114
     24 C         144.9083  140.6888  163.2195 C.ar    1  UNL1        0.0574
     25 CL        145.9103  141.8042  163.2619 Cl      1  UNL1       -0.0823
     26 C         144.3639  140.1208  164.4965 C.ar    1  UNL1        0.0088
@<TRIPOS>BOND
     1    13    14    1
     2    14    15   ar
     3    15    16   ar
     4    16    17   ar
     5    17     1    1
     6     1     2    2
     7     1     3   am
     8     3    19    1
     9    19    20    1
    10    20    21   ar
    11    21    22   ar
    12    22    23   ar
    13    23    24   ar
    14    24    25    1
    15    24    26   ar
    16     4     3    1
    17     4     5    1
    18     5     6    1
    19     6     7    1
    20     7     8    1
    21     7     9    1
    22     9    10    1
    23    17    18   ar
    24    18    14   ar
    25    26    20   ar
    26    10     4    1
    27     8    11    1
    28     8    12    1
@<TRIPOS>MOLECULE
*****
 26 28 0 0 0
SMALL
GASTEIGER

@<TRIPOS>ATOM
      1 C         139.5863  142.4445  164.4423 C.2     1  UNL1        0.2685
      2 O         138.1580  142.3595  164.8924 O.2     1  UNL1       -0.2682
      3 N         140.6102  141.5103  165.0158 N.am    1  UNL1       -0.2723
      4 C         142.0386  141.5953  164.5655 C.3     1  UNL1        0.0761
      5 C         142.9854  142.5373  165.2483 C.3     1  UNL1        0.0212
      6 C         144.4137  142.6223  164.7980 C.3     1  UNL1        0.0172
      7 C         144.8951  141.7652  163.6651 C.3     1  UNL1        0.0509
      8 N         146.3235  141.8502  163.2148 N.3     1  UNL1       -0.3222
      9 C         143.9484  140.8232  162.9823 C.3     1  UNL1        0.0172
     10 C         142.5201  140.7382  163.4326 C.3     1  UNL1        0.0212
     11 H         146.8195  142.5353  163.7849 H       1  UNL1        0.1188
     12 H         146.3551  142.1354  162.2360 H       1  UNL1        0.1188
     13 C         140.5414  144.8163  159.8223 C.3     1  UNL1        0.1321
     14 N         140.4297  144.5537  161.2949 N.ar    1  UNL1       -0.3057
     15 C         140.7962  145.5096  162.3913 C.ar    1  UNL1        0.1787
     16 N         140.5249  144.8359  163.7037 N.ar    1  UNL1       -0.2192
     17 C         139.9907  143.4636  163.4185 C.ar    1  UNL1        0.1535
     18 C         139.9318  143.2891  161.9298 C.ar    1  UNL1        0.1012
     19 C         140.2059  140.4913  166.0395 C.3     1  UNL1        0.1204
     20 C         139.9995  140.9032  167.4670 C.ar    1  UNL1       -0.0015
     21 C         139.2999  139.9803  168.4203 C.ar    1  UNL1       -0.0026
     22 C         139.0935  140.3923  169.8477 C.ar    1  UNL1        0.0006
     23 C         139.5866  141.7272  170.3219 C.ar    1  UNL1        0.0114
     24 C         140.2862  142.6501  169.3686 C.ar    1  UNL1        0.0574
     25 CL        140.7793  143.9850  169.8428 Cl      1  UNL1       -0.0823
     26 C         140.4926  142.2381  167.9412 C.ar    1  UNL1        0.0088
@<TRIPOS>BOND
     1    13    14    1
     2    14    15   ar
     3    15    16   ar
     4    16    17   ar
     5    17     1    1
     6     1     2    2
     7     1     3   am
     8     3    19    1
     9    19    20    1
    10    20    21   ar
    11    21    22   ar
    12    22    23   ar
    13    23    24   ar
    14    24    25    1
    15    24    26   ar
    16     4     3    1
    17     4     5    1
    18     5     6    1
    19     6     7    1
    20     7     8    1
    21     7     9    1
    22     9    10    1
    23    17    18   ar
    24    18    14   ar
    25    26    20   ar
    26    10     4    1
    27     8    11    1
    28     8    12    1
@<TRIPOS>MOLECULE
*****
 26 28 0 0 0
SMALL
GASTEIGER

@<TRIPOS>ATOM
      1 C         138.5037  139.0750  166.1280 C.2     1  UNL1        0.2685
      2 O         137.3588  138.5810  166.9616 O.2     1  UNL1       -0.2682
      3 N         139.6799  139.7347  166.7849 N.am    1  UNL1       -0.2723
      4 C         140.8249  140.2287  165.9512 C.3     1  UNL1        0.0761
      5 C         141.9888  139.3266  165.6657 C.3     1  UNL1        0.0212
      6 C         143.1338  139.8207  164.8321 C.3     1  UNL1        0.0172
      7 C         143.1148  141.2168  164.2839 C.3     1  UNL1        0.0509
      8 N         144.2598  141.7109  163.4503 N.3     1  UNL1       -0.3222
      9 C         141.9509  142.1189  164.5694 C.3     1  UNL1        0.0172
     10 C         140.8059  141.6248  165.4030 C.3     1  UNL1        0.0212
     11 H         144.9572  140.9722  163.3585 H       1  UNL1        0.1188
     12 H         144.6821  142.5232  163.8999 H       1  UNL1        0.1188
     13 C         137.7303  140.0012  160.9874 C.3     1  UNL1        0.1321
     14 N         138.1171  139.3352  162.2746 N.ar    1  UNL1       -0.3057
     15 C         138.7322  137.9741  162.4129 C.ar    1  UNL1        0.1787
     16 N         138.9519  137.7110  163.8732 N.ar    1  UNL1       -0.2192
     17 C         138.4726  138.9094  164.6374 C.ar    1  UNL1        0.1535
     18 C         137.9566  139.9133  163.6495 C.ar    1  UNL1        0.1012
     19 C         139.7111  139.9003  168.2753 C.3     1  UNL1        0.1204
     20 C         140.6203  140.9180  168.8980 C.ar    1  UNL1       -0.0015
     21 C         142.0525  140.5718  169.1793 C.ar    1  UNL1       -0.0026
     22 C         142.9616  141.5895  169.8020 C.ar    1  UNL1        0.0006
     23 C         142.4386  142.9533  170.1434 C.ar    1  UNL1        0.0114
     24 C         141.0065  143.2994  169.8621 C.ar    1  UNL1        0.0574
     25 CL        140.4835  144.6632  170.2036 Cl      1  UNL1       -0.0823
     26 C         140.0973  142.2817  169.2395 C.ar    1  UNL1        0.0088
@<TRIPOS>BOND
     1    13    14    1
     2    14    15   ar
     3    15    16   ar
     4    16    17   ar
     5    17     1    1
     6     1     2    2
     7     1     3   am
     8     3    19    1
     9    19    20    1
    10    20    21   ar
    11    21    22   ar
    12    22    23   ar
    13    23    24   ar
    14    24    25    1
    15    24    26   ar
    16     4     3    1
    17     4     5    1
    18     5     6    1
    19     6     7    1
    20     7     8    1
    21     7     9    1
    22     9    10    1
    23    17    18   ar
    24    18    14   ar
    25    26    20   ar
    26    10     4    1
    27     8    11    1
    28     8    12    1
@<TRIPOS>MOLECULE
*****
 26 28 0 0 0
SMALL
GASTEIGER

@<TRIPOS>ATOM
      1 C         139.9941  139.7552  165.1986 C.2     1  UNL1        0.2685
      2 O         138.7190  139.3194  165.8576 O.2     1  UNL1       -0.2682
      3 N         141.2166  140.0145  166.0281 N.am    1  UNL1       -0.2723
      4 C         142.4917  140.4502  165.3690 C.3     1  UNL1        0.0761
      5 C         142.7764  141.9106  165.1783 C.3     1  UNL1        0.0212
      6 C         144.0514  142.3462  164.5193 C.3     1  UNL1        0.0172
      7 C         145.0417  141.3216  164.0509 C.3     1  UNL1        0.0509
      8 N         146.3168  141.7574  163.3917 N.3     1  UNL1       -0.3222
      9 C         144.7570  139.8613  164.2415 C.3     1  UNL1        0.0172
     10 C         143.4820  139.4256  164.9006 C.3     1  UNL1        0.0212
     11 H         146.3446  142.7760  163.3452 H       1  UNL1        0.1188
     12 H         146.3605  141.3726  162.4481 H       1  UNL1        0.1188
     13 C         140.3519  138.7349  160.0302 C.3     1  UNL1        0.1321
     14 N         140.2111  139.4626  161.3342 N.ar    1  UNL1       -0.3057
     15 C         140.0439  140.9436  161.5039 C.ar    1  UNL1        0.1787
     16 N         139.9423  141.2335  162.9721 N.ar    1  UNL1       -0.2192
     17 C         140.0466  139.9317  163.7098 C.ar    1  UNL1        0.1535
     18 C         140.2128  138.8372  162.6977 C.ar    1  UNL1        0.1012
     19 C         141.1641  139.8380  167.5168 C.3     1  UNL1        0.1204
     20 C         141.6400  140.9374  168.4196 C.ar    1  UNL1       -0.0015
     21 C         143.0248  140.8896  168.9939 C.ar    1  UNL1       -0.0026
     22 C         143.5006  141.9890  169.8967 C.ar    1  UNL1        0.0006
     23 C         142.5916  143.1360  170.2252 C.ar    1  UNL1        0.0114
     24 C         141.2067  143.1837  169.6509 C.ar    1  UNL1        0.0574
     25 CL        140.2977  144.3308  169.9795 Cl      1  UNL1       -0.0823
     26 C         140.7309  142.0844  168.7482 C.ar    1  UNL1        0.0088
@<TRIPOS>BOND
     1    13    14    1
     2    14    15   ar
     3    15    16   ar
     4    16    17   ar
     5    17     1    1
     6     1     2    2
     7     1     3   am
     8     3    19    1
     9    19    20    1
    10    20    21   ar
    11    21    22   ar
    12    22    23   ar
    13    23    24   ar
    14    24    25    1
    15    24    26   ar
    16     4     3    1
    17     4     5    1
    18     5     6    1
    19     6     7    1
    20     7     8    1
    21     7     9    1
    22     9    10    1
    23    17    18   ar
    24    18    14   ar
    25    26    20   ar
    26    10     4    1
    27     8    11    1
    28     8    12    1
@<TRIPOS>MOLECULE
*****
 26 28 0 0 0
SMALL
GASTEIGER

@<TRIPOS>ATOM
      1 C         139.8157  139.8449  168.1758 C.2     1  UNL1        0.2685
      2 O         138.4913  139.6006  168.8361 O.2     1  UNL1       -0.2682
      3 N         139.9889  139.5591  166.7135 N.am    1  UNL1       -0.2723
      4 C         141.3134  139.8034  166.0533 C.3     1  UNL1        0.0761
      5 C         142.2654  138.6645  165.8377 C.3     1  UNL1        0.0212
      6 C         143.5899  138.9089  165.1775 C.3     1  UNL1        0.0172
      7 C         143.9624  140.2922  164.7328 C.3     1  UNL1        0.0509
      8 N         145.2869  140.5366  164.0725 N.3     1  UNL1       -0.3222
      9 C         143.0104  141.4311  164.9483 C.3     1  UNL1        0.0172
     10 C         141.6859  141.1867  165.6086 C.3     1  UNL1        0.0212
     11 H         145.8017  139.6584  164.0076 H       1  UNL1        0.1188
     12 H         145.8238  141.2054  164.6246 H       1  UNL1        0.1188
     13 C         143.1216  143.1411  170.6431 C.3     1  UNL1        0.1321
     14 N         142.4867  141.8903  170.1119 N.ar    1  UNL1       -0.3057
     15 C         142.9912  140.4919  170.3120 C.ar    1  UNL1        0.1787
     16 N         142.0521  139.5555  169.6111 N.ar    1  UNL1       -0.2192
     17 C         140.9672  140.3751  168.9779 C.ar    1  UNL1        0.1535
     18 C         141.2356  141.8181  169.2873 C.ar    1  UNL1        0.1012
     19 C         138.8375  139.0289  165.9115 C.3     1  UNL1        0.1204
     20 C         138.4794  139.6661  164.6016 C.ar    1  UNL1       -0.0015
     21 C         138.4435  138.8396  163.3505 C.ar    1  UNL1       -0.0026
     22 C         138.0854  139.4768  162.0407 C.ar    1  UNL1        0.0006
     23 C         137.7631  140.9406  161.9821 C.ar    1  UNL1        0.0114
     24 C         137.7990  141.7672  163.2332 C.ar    1  UNL1        0.0574
     25 CL        137.4768  143.2310  163.1746 Cl      1  UNL1       -0.0823
     26 C         138.1571  141.1299  164.5430 C.ar    1  UNL1        0.0088
@<TRIPOS>BOND
     1    13    14    1
     2    14    15   ar
     3    15    16   ar
     4    16    17   ar
     5    17     1    1
     6     1     2    2
     7     1     3   am
     8     3    19    1
     9    19    20    1
    10    20    21   ar
    11    21    22   ar
    12    22    23   ar
    13    23    24   ar
    14    24    25    1
    15    24    26   ar
    16     4     3    1
    17     4     5    1
    18     5     6    1
    19     6     7    1
    20     7     8    1
    21     7     9    1
    22     9    10    1
    23    17    18   ar
    24    18    14   ar
    25    26    20   ar
    26    10     4    1
    27     8    11    1
    28     8    12    1
@<TRIPOS>MOLECULE
*****
 26 28 0 0 0
SMALL
GASTEIGER

@<TRIPOS>ATOM
      1 C         139.3756  144.4286  162.2408 C.2     1  UNL1        0.2685
      2 O         137.9740  144.9070  162.4786 O.2     1  UNL1       -0.2682
      3 N         140.2264  143.9945  163.3974 N.am    1  UNL1       -0.2723
      4 C         141.6280  143.5160  163.1594 C.3     1  UNL1        0.0761
      5 C         142.7711  144.4857  163.2149 C.3     1  UNL1        0.0212
      6 C         144.1726  144.0072  162.9769 C.3     1  UNL1        0.0172
      7 C         144.4311  142.5590  162.6836 C.3     1  UNL1        0.0509
      8 N         145.8328  142.0805  162.4457 N.3     1  UNL1       -0.3222
      9 C         143.2880  141.5894  162.6282 C.3     1  UNL1        0.0172
     10 C         141.8865  142.0679  162.8661 C.3     1  UNL1        0.0212
     11 H         146.4779  142.8670  162.5208 H       1  UNL1        0.1188
     12 H         145.8995  141.6740  161.5125 H       1  UNL1        0.1188
     13 C         141.8637  145.7647  157.7792 C.3     1  UNL1        0.1321
     14 N         141.0701  144.9983  158.7955 N.ar    1  UNL1       -0.3057
     15 C         140.4781  143.6332  158.6051 C.ar    1  UNL1        0.1787
     16 N         139.7713  143.2537  159.8725 N.ar    1  UNL1       -0.2192
     17 C         139.9264  144.3841  160.8462 C.ar    1  UNL1        0.1535
     18 C         140.7292  145.4624  160.1806 C.ar    1  UNL1        0.1012
     19 C         139.6756  144.0389  164.7918 C.3     1  UNL1        0.1204
     20 C         139.7076  142.8093  165.6504 C.ar    1  UNL1       -0.0015
     21 C         140.4900  142.8083  166.9302 C.ar    1  UNL1       -0.0026
     22 C         140.5219  141.5787  167.7887 C.ar    1  UNL1        0.0006
     23 C         139.7714  140.3501  167.3674 C.ar    1  UNL1        0.0114
     24 C         138.9890  140.3512  166.0876 C.ar    1  UNL1        0.0574
     25 CL        138.2386  139.1226  165.6664 Cl      1  UNL1       -0.0823
     26 C         138.9571  141.5807  165.2292 C.ar    1  UNL1        0.0088
@<TRIPOS>BOND
     1    13    14    1
     2    14    15   ar
     3    15    16   ar
     4    16    17   ar
     5    17     1    1
     6     1     2    2
     7     1     3   am
     8     3    19    1
     9    19    20    1
    10    20    21   ar
    11    21    22   ar
    12    22    23   ar
    13    23    24   ar
    14    24    25    1
    15    24    26   ar
    16     4     3    1
    17     4     5    1
    18     5     6    1
    19     6     7    1
    20     7     8    1
    21     7     9    1
    22     9    10    1
    23    17    18   ar
    24    18    14   ar
    25    26    20   ar
    26    10     4    1
    27     8    11    1
    28     8    12    1
@<TRIPOS>MOLECULE
*****
 26 28 0 0 0
SMALL
GASTEIGER

@<TRIPOS>ATOM
      1 C         142.7304  139.7364  168.3414 C.2     1  UNL1        0.2685
      2 O         143.1256  138.4956  169.0857 O.2     1  UNL1       -0.2682
      3 N         142.8120  139.7708  166.8440 N.am    1  UNL1       -0.2723
      4 C         142.4168  141.0118  166.0997 C.3     1  UNL1        0.0761
      5 C         143.4626  142.0061  165.6905 C.3     1  UNL1        0.0212
      6 C         143.0674  143.2469  164.9462 C.3     1  UNL1        0.0172
      7 C         141.6262  143.4935  164.6111 C.3     1  UNL1        0.0509
      8 N         141.2310  144.7344  163.8668 N.3     1  UNL1       -0.3222
      9 C         140.5804  142.4992  165.0202 C.3     1  UNL1        0.0172
     10 C         140.9756  141.2583  165.7645 C.3     1  UNL1        0.0212
     11 H         142.0620  145.2925  163.6707 H       1  UNL1        0.1188
     12 H         140.5818  145.2791  164.4344 H       1  UNL1        0.1188
     13 C         139.6181  143.1715  170.8702 C.3     1  UNL1        0.1321
     14 N         140.8229  142.5218  170.2568 N.ar    1  UNL1       -0.3057
     15 C         142.2164  143.0771  170.2496 C.ar    1  UNL1        0.1787
     16 N         143.1005  142.1013  169.5312 N.ar    1  UNL1       -0.2192
     17 C         142.2535  140.9429  169.0944 C.ar    1  UNL1        0.1535
     18 C         140.8459  141.2028  169.5428 C.ar    1  UNL1        0.1012
     19 C         143.2888  138.5644  166.0909 C.3     1  UNL1        0.1204
     20 C         142.8011  138.3102  164.6953 C.ar    1  UNL1       -0.0015
     21 C         141.4851  137.6254  164.4738 C.ar    1  UNL1       -0.0026
     22 C         140.9975  137.3713  163.0783 C.ar    1  UNL1        0.0006
     23 C         141.8258  137.8020  161.9043 C.ar    1  UNL1        0.0114
     24 C         143.1418  138.4868  162.1258 C.ar    1  UNL1        0.0574
     25 CL        143.9701  138.9175  160.9518 Cl      1  UNL1       -0.0823
     26 C         143.6295  138.7409  163.5213 C.ar    1  UNL1        0.0088
@<TRIPOS>BOND
     1    13    14    1
     2    14    15   ar
     3    15    16   ar
     4    16    17   ar
     5    17     1    1
     6     1     2    2
     7     1     3   am
     8     3    19    1
     9    19    20    1
    10    20    21   ar
    11    21    22   ar
    12    22    23   ar
    13    23    24   ar
    14    24    25    1
    15    24    26   ar
    16     4     3    1
    17     4     5    1
    18     5     6    1
    19     6     7    1
    20     7     8    1
    21     7     9    1
    22     9    10    1
    23    17    18   ar
    24    18    14   ar
    25    26    20   ar
    26    10     4    1
    27     8    11    1
    28     8    12    1
@<TRIPOS>MOLECULE
*****
 26 28 0 0 0
SMALL
GASTEIGER

@<TRIPOS>ATOM
      1 C         142.8177  139.4387  165.2951 C.2     1  UNL1        0.2685
      2 O         143.1269  138.1505  165.9986 O.2     1  UNL1       -0.2682
      3 N         142.6834  140.7091  166.0812 N.am    1  UNL1       -0.2723
      4 C         142.3741  141.9973  165.3777 C.3     1  UNL1        0.0761
      5 C         140.9486  142.3965  165.1363 C.3     1  UNL1        0.0212
      6 C         140.6394  143.6847  164.4327 C.3     1  UNL1        0.0172
      7 C         141.7558  144.5736  163.9706 C.3     1  UNL1        0.0509
      8 N         141.4465  145.8618  163.2671 N.3     1  UNL1       -0.3222
      9 C         143.1813  144.1744  164.2120 C.3     1  UNL1        0.0172
     10 C         143.4905  142.8862  164.9156 C.3     1  UNL1        0.0212
     11 H         140.4355  145.9726  163.1893 H       1  UNL1        0.1188
     12 H         141.8597  145.8477  162.3346 H       1  UNL1        0.1188
     13 C         143.8508  139.5767  160.1187 C.3     1  UNL1        0.1321
     14 N         143.1177  139.5199  161.4261 N.ar    1  UNL1       -0.3057
     15 C         141.6295  139.4479  161.6000 C.ar    1  UNL1        0.1787
     16 N         141.3360  139.4087  163.0705 N.ar    1  UNL1       -0.2192
     17 C         142.6427  139.4565  163.8054 C.ar    1  UNL1        0.1535
     18 C         143.7439  139.5252  162.7892 C.ar    1  UNL1        0.1012
     19 C         142.8583  140.6913  167.5709 C.3     1  UNL1        0.1204
     20 C         141.7376  141.1366  168.4630 C.ar    1  UNL1       -0.0015
     21 C         140.7436  140.1364  168.9745 C.ar    1  UNL1       -0.0026
     22 C         139.6230  140.5817  169.8667 C.ar    1  UNL1        0.0006
     23 C         139.4964  142.0271  170.2473 C.ar    1  UNL1        0.0114
     24 C         140.4904  143.0272  169.7358 C.ar    1  UNL1        0.0574
     25 CL        140.3638  144.4726  170.1164 Cl      1  UNL1       -0.0823
     26 C         141.6110  142.5819  168.8436 C.ar    1  UNL1        0.0088
@<TRIPOS>BOND
     1    13    14    1
     2    14    15   ar
     3    15    16   ar
     4    16    17   ar
     5    17     1    1
     6     1     2    2
     7     1     3   am
     8     3    19    1
     9    19    20    1
    10    20    21   ar
    11    21    22   ar
    12    22    23   ar
    13    23    24   ar
    14    24    25    1
    15    24    26   ar
    16     4     3    1
    17     4     5    1
    18     5     6    1
    19     6     7    1
    20     7     8    1
    21     7     9    1
    22     9    10    1
    23    17    18   ar
    24    18    14   ar
    25    26    20   ar
    26    10     4    1
    27     8    11    1
    28     8    12    1
