@<TRIPOS>MOLECULE
*****
 32 36 0 0 0
SMALL
GASTEIGER

@<TRIPOS>ATOM
      1 C         141.4134  140.6995  168.8605 C.ar    1  UNL1        0.2057
      2 N         142.2080  140.4648  167.6101 N.ar    1  UNL1       -0.2121
      3 C         141.7338  141.4363  166.5704 C.ar    1  UNL1        0.1182
      4 C         142.1520  141.6684  165.1486 C.ar    1  UNL1        0.0178
      5 C         141.4824  142.7358  164.3346 C.ar    1  UNL1       -0.0230
      6 C         140.3948  143.5709  164.9424 C.ar    1  UNL1       -0.0216
      7 C         139.9766  143.3389  166.3640 C.ar    1  UNL1        0.0346
      8 C         140.6462  142.2716  167.1781 C.ar    1  UNL1        0.1640
      9 O         140.4481  141.8162  168.5935 O.2     1  UNL1       -0.4384
     10 C         139.6032  144.6783  164.3121 C.3     1  UNL1        0.0434
     11 C         139.7038  145.2238  162.9184 C.3     1  UNL1        0.0768
     12 N         140.6207  144.7968  161.8109 N.3     1  UNL1       -0.2720
     13 C         141.6637  143.7188  161.8233 C.3     1  UNL1        0.0768
     14 C         142.0472  142.8015  162.9465 C.3     1  UNL1        0.0434
     15 C         142.9216  139.7053  170.7278 C.3     1  UNL1        0.0102
     16 C         141.5585  139.9493  170.1513 C.3     1  UNL1        0.0853
     17 C         140.4756  145.5470  160.5201 C.3     1  UNL1        0.0730
     18 C         140.7954  144.8711  159.2197 C.3     1  UNL1        0.0294
     19 C         139.7473  144.0580  158.5193 C.3     1  UNL1        0.0666
     20 S         139.5686  142.6090  158.8628 S.3     1  UNL1       -0.0756
     21 C         138.9391  142.2195  160.1674 C.ar    1  UNL1        0.1932
     22 N         137.7900  142.9156  160.8344 N.ar    1  UNL1       -0.1221
     23 N         137.4888  142.1920  162.1134 N.ar    1  UNL1       -0.1282
     24 C         138.4519  141.0486  162.2367 C.ar    1  UNL1        0.1683
     25 N         139.3482  141.0656  161.0341 N.ar    1  UNL1       -0.2884
     26 C         140.4587  140.0985  160.7483 C.3     1  UNL1        0.1340
     27 C         138.5087  140.0615  163.3647 C.ar    1  UNL1        0.0551
     28 C         138.3341  140.5285  164.7795 C.ar    1  UNL1        0.0062
     29 C         138.3909  139.5414  165.9075 C.ar    1  UNL1        0.0208
     30 C         138.6223  138.0873  165.6209 C.ar    1  UNL1        0.0989
     31 N         138.7969  137.6204  164.2061 N.ar    1  UNL1       -0.2422
     32 C         138.7401  138.6075  163.0781 C.ar    1  UNL1        0.1019
@<TRIPOS>BOND
     1    15    16    1
     2    16     1    1
     3     1     2   ar
     4     2     3   ar
     5     3     4   ar
     6     4     5   ar
     7     5     6   ar
     8     6     7   ar
     9     7     8   ar
    10     8     9   ar
    11     6    10    1
    12    10    11    1
    13    11    12    1
    14    12    17    1
    15    17    18    1
    16    18    19    1
    17    19    20    1
    18    20    21    1
    19    21    22   ar
    20    22    23   ar
    21    23    24   ar
    22    24    27    1
    23    27    28   ar
    24    28    29   ar
    25    29    30   ar
    26    30    31   ar
    27    31    32   ar
    28    24    25   ar
    29    25    26    1
    30    12    13    1
    31    13    14    1
    32     9     1   ar
    33    25    21   ar
    34     8     3   ar
    35    32    27   ar
    36    14     5    1
@<TRIPOS>MOLECULE
*****
 32 36 0 0 0
SMALL
GASTEIGER

@<TRIPOS>ATOM
      1 C         142.1405  140.1391  168.4062 C.ar    1  UNL1        0.2057
      2 N         141.1403  141.2518  168.2989 N.ar    1  UNL1       -0.2121
      3 C         141.2397  141.8330  166.9197 C.ar    1  UNL1        0.1182
      4 C         140.5007  142.9511  166.2460 C.ar    1  UNL1        0.0178
      5 C         140.8234  143.3157  164.8272 C.ar    1  UNL1       -0.0230
      6 C         141.8850  142.5622  164.0822 C.ar    1  UNL1       -0.0216
      7 C         142.6240  141.4442  164.7558 C.ar    1  UNL1        0.0346
      8 C         142.3014  141.0796  166.1746 C.ar    1  UNL1        0.1640
      9 O         142.8581  140.0327  167.0933 O.2     1  UNL1       -0.4384
     10 C         142.3590  142.7617  162.6730 C.3     1  UNL1        0.0434
     11 C         141.8883  143.7640  161.6610 C.3     1  UNL1        0.0768
     12 N         140.8275  144.8141  161.8082 N.3     1  UNL1       -0.2720
     13 C         139.9753  145.1216  163.0037 C.3     1  UNL1        0.0768
     14 C         139.9734  144.4547  164.3473 C.3     1  UNL1        0.0434
     15 C         143.0321  139.8697  170.8316 C.3     1  UNL1        0.0102
     16 C         142.3809  139.2831  169.6143 C.3     1  UNL1        0.0853
     17 C         140.5871  145.6701  160.6001 C.3     1  UNL1        0.0730
     18 C         140.9209  145.1495  159.2335 C.3     1  UNL1        0.0294
     19 C         139.8947  144.3852  158.4507 C.3     1  UNL1        0.0666
     20 S         139.7404  142.9078  158.6583 S.3     1  UNL1       -0.0756
     21 C         139.1294  142.3884  159.9260 C.ar    1  UNL1        0.1932
     22 N         137.9777  143.0021  160.6656 N.ar    1  UNL1       -0.1221
     23 N         137.6993  142.1571  161.8733 N.ar    1  UNL1       -0.1282
     24 C         138.6788  141.0211  161.8800 C.ar    1  UNL1        0.1683
     25 N         139.5627  141.1641  160.6764 N.ar    1  UNL1       -0.2884
     26 C         140.6831  140.2442  160.2912 C.3     1  UNL1        0.1340
     27 C         138.7603  139.9332  162.9094 C.ar    1  UNL1        0.0551
     28 C         138.9229  140.2830  164.3590 C.ar    1  UNL1        0.0062
     29 C         139.0043  139.1951  165.3885 C.ar    1  UNL1        0.0208
     30 C         138.9231  137.7574  164.9685 C.ar    1  UNL1        0.0989
     31 N         138.7605  137.4076  163.5189 N.ar    1  UNL1       -0.2422
     32 C         138.6791  138.4956  162.4894 C.ar    1  UNL1        0.1019
@<TRIPOS>BOND
     1    15    16    1
     2    16     1    1
     3     1     2   ar
     4     2     3   ar
     5     3     4   ar
     6     4     5   ar
     7     5     6   ar
     8     6     7   ar
     9     7     8   ar
    10     8     9   ar
    11     6    10    1
    12    10    11    1
    13    11    12    1
    14    12    17    1
    15    17    18    1
    16    18    19    1
    17    19    20    1
    18    20    21    1
    19    21    22   ar
    20    22    23   ar
    21    23    24   ar
    22    24    27    1
    23    27    28   ar
    24    28    29   ar
    25    29    30   ar
    26    30    31   ar
    27    31    32   ar
    28    24    25   ar
    29    25    26    1
    30    12    13    1
    31    13    14    1
    32     9     1   ar
    33    25    21   ar
    34     8     3   ar
    35    32    27   ar
    36    14     5    1
@<TRIPOS>MOLECULE
*****
 32 36 0 0 0
SMALL
GASTEIGER

@<TRIPOS>ATOM
      1 C         140.6934  145.0423  159.6103 C.ar    1  UNL1        0.2057
      2 N         139.7360  144.7249  160.7206 N.ar    1  UNL1       -0.2121
      3 C         140.5378  144.3371  161.9275 C.ar    1  UNL1        0.1182
      4 C         140.1326  143.9233  163.3112 C.ar    1  UNL1        0.0178
      5 C         141.1805  143.5871  164.3305 C.ar    1  UNL1       -0.0230
      6 C         142.6334  143.6648  163.9662 C.ar    1  UNL1       -0.0216
      7 C         143.0387  144.0787  162.5825 C.ar    1  UNL1        0.0346
      8 C         141.9909  144.4148  161.5631 C.ar    1  UNL1        0.1640
      9 O         142.0869  144.8507  160.1311 O.2     1  UNL1       -0.4384
     10 C         143.8295  143.3748  164.8237 C.3     1  UNL1        0.0434
     11 C         143.8679  142.9353  166.2575 C.3     1  UNL1        0.0768
     12 N         142.7198  142.6774  167.1876 N.3     1  UNL1       -0.2720
     13 C         141.2496  142.7953  166.9139 C.3     1  UNL1        0.0768
     14 C         140.5646  143.2002  165.6424 C.3     1  UNL1        0.0434
     15 C         141.3913  145.8893  157.2554 C.3     1  UNL1        0.0102
     16 C         140.3224  145.4753  158.2229 C.3     1  UNL1        0.0853
     17 C         143.0908  142.2444  168.5750 C.3     1  UNL1        0.0730
     18 C         142.0902  142.3529  169.6873 C.3     1  UNL1        0.0294
     19 C         141.6786  141.1273  170.4480 C.3     1  UNL1        0.0666
     20 S         141.6429  139.7947  169.7605 S.3     1  UNL1       -0.0756
     21 C         140.8952  139.6364  168.4698 C.ar    1  UNL1        0.1932
     22 N         139.4158  139.7976  168.2824 N.ar    1  UNL1       -0.1221
     23 N         139.1019  139.5500  166.8367 N.ar    1  UNL1       -0.1282
     24 C         140.3875  139.2357  166.1305 C.ar    1  UNL1        0.1683
     25 N         141.4958  139.2891  167.1399 N.ar    1  UNL1       -0.2884
     26 C         142.9495  139.0392  166.8671 C.3     1  UNL1        0.1340
     27 C         140.5382  138.9230  164.6713 C.ar    1  UNL1        0.0551
     28 C         140.6552  140.0370  163.6737 C.ar    1  UNL1        0.0062
     29 C         140.8060  139.7243  162.2144 C.ar    1  UNL1        0.0208
     30 C         140.8398  138.2975  161.7527 C.ar    1  UNL1        0.0989
     31 N         140.7228  137.1835  162.7503 N.ar    1  UNL1       -0.2422
     32 C         140.5720  137.4963  164.2096 C.ar    1  UNL1        0.1019
@<TRIPOS>BOND
     1    15    16    1
     2    16     1    1
     3     1     2   ar
     4     2     3   ar
     5     3     4   ar
     6     4     5   ar
     7     5     6   ar
     8     6     7   ar
     9     7     8   ar
    10     8     9   ar
    11     6    10    1
    12    10    11    1
    13    11    12    1
    14    12    17    1
    15    17    18    1
    16    18    19    1
    17    19    20    1
    18    20    21    1
    19    21    22   ar
    20    22    23   ar
    21    23    24   ar
    22    24    27    1
    23    27    28   ar
    24    28    29   ar
    25    29    30   ar
    26    30    31   ar
    27    31    32   ar
    28    24    25   ar
    29    25    26    1
    30    12    13    1
    31    13    14    1
    32     9     1   ar
    33    25    21   ar
    34     8     3   ar
    35    32    27   ar
    36    14     5    1
@<TRIPOS>MOLECULE
*****
 32 36 0 0 0
SMALL
GASTEIGER

@<TRIPOS>ATOM
      1 C         143.0265  138.9079  157.5289 C.ar    1  UNL1        0.2057
      2 N         142.0726  138.1511  158.4049 N.ar    1  UNL1       -0.2121
      3 C         142.4269  138.4396  159.8336 C.ar    1  UNL1        0.1182
      4 C         141.8331  137.9716  161.1291 C.ar    1  UNL1        0.0178
      5 C         142.4121  138.4388  162.4317 C.ar    1  UNL1       -0.0230
      6 C         143.5849  139.3738  162.4386 C.ar    1  UNL1       -0.0216
      7 C         144.1788  139.8418  161.1432 C.ar    1  UNL1        0.0346
      8 C         143.5998  139.3747  159.8406 C.ar    1  UNL1        0.1640
      9 O         143.9703  139.6641  158.4162 O.2     1  UNL1       -0.4384
     10 C         144.3095  139.9565  163.6157 C.3     1  UNL1        0.0434
     11 C         144.0401  139.7479  165.0766 C.3     1  UNL1        0.0768
     12 N         142.9797  138.9053  165.7210 N.3     1  UNL1       -0.2720
     13 C         141.9267  138.0630  165.0639 C.3     1  UNL1        0.0768
     14 C         141.6741  137.8554  163.6000 C.3     1  UNL1        0.0434
     15 C         144.2143  138.3544  155.2854 C.3     1  UNL1        0.0102
     16 C         143.0351  138.9084  156.0289 C.3     1  UNL1        0.0853
     17 C         142.9712  138.9048  167.2210 C.3     1  UNL1        0.0730
     18 C         142.4062  140.0764  167.9683 C.3     1  UNL1        0.0294
     19 C         141.2357  139.8864  168.8868 C.3     1  UNL1        0.0666
     20 S         139.8759  140.3708  168.4788 S.3     1  UNL1       -0.0756
     21 C         139.4294  140.2388  167.0529 C.ar    1  UNL1        0.1932
     22 N         138.7123  139.0628  166.4589 N.ar    1  UNL1       -0.1221
     23 N         138.4612  139.3568  165.0096 N.ar    1  UNL1       -0.1282
     24 C         139.0231  140.7144  164.7079 C.ar    1  UNL1        0.1683
     25 N         139.6215  141.2596  165.9708 N.ar    1  UNL1       -0.2884
     26 C         140.2938  142.5916  166.1245 C.3     1  UNL1        0.1340
     27 C         138.9921  141.4057  163.3770 C.ar    1  UNL1        0.0551
     28 C         140.1705  141.3090  162.4540 C.ar    1  UNL1        0.0062
     29 C         140.1395  142.0002  161.1232 C.ar    1  UNL1        0.0208
     30 C         138.9301  142.7881  160.7152 C.ar    1  UNL1        0.0989
     31 N         137.7516  142.8848  161.6382 N.ar    1  UNL1       -0.2422
     32 C         137.7827  142.1936  162.9691 C.ar    1  UNL1        0.1019
@<TRIPOS>BOND
     1    15    16    1
     2    16     1    1
     3     1     2   ar
     4     2     3   ar
     5     3     4   ar
     6     4     5   ar
     7     5     6   ar
     8     6     7   ar
     9     7     8   ar
    10     8     9   ar
    11     6    10    1
    12    10    11    1
    13    11    12    1
    14    12    17    1
    15    17    18    1
    16    18    19    1
    17    19    20    1
    18    20    21    1
    19    21    22   ar
    20    22    23   ar
    21    23    24   ar
    22    24    27    1
    23    27    28   ar
    24    28    29   ar
    25    29    30   ar
    26    30    31   ar
    27    31    32   ar
    28    24    25   ar
    29    25    26    1
    30    12    13    1
    31    13    14    1
    32     9     1   ar
    33    25    21   ar
    34     8     3   ar
    35    32    27   ar
    36    14     5    1
@<TRIPOS>MOLECULE
*****
 32 36 0 0 0
SMALL
GASTEIGER

@<TRIPOS>ATOM
      1 C         140.3084  140.1279  168.8555 C.ar    1  UNL1        0.2057
      2 N         141.1750  140.9223  167.9238 N.ar    1  UNL1       -0.2121
      3 C         140.5116  140.9437  166.5787 C.ar    1  UNL1        0.1182
      4 C         140.9052  141.5737  165.2755 C.ar    1  UNL1        0.0178
      5 C         140.0220  141.4224  164.0724 C.ar    1  UNL1       -0.0230
      6 C         138.7455  140.6412  164.1727 C.ar    1  UNL1       -0.0216
      7 C         138.3519  140.0113  165.4758 C.ar    1  UNL1        0.0346
      8 C         139.2350  140.1625  166.6789 C.ar    1  UNL1        0.1640
      9 O         139.1094  139.6583  168.0860 O.2     1  UNL1       -0.4384
     10 C         137.7285  140.3702  163.1038 C.3     1  UNL1        0.0434
     11 C         137.7370  140.8135  161.6708 C.3     1  UNL1        0.0768
     12 N         138.7645  141.6372  160.9528 N.3     1  UNL1       -0.2720
     13 C         140.0374  142.2211  161.4903 C.3     1  UNL1        0.0768
     14 C         140.5970  142.1255  162.8787 C.3     1  UNL1        0.0434
     15 C         140.9435  140.9793  171.2265 C.3     1  UNL1        0.0102
     16 C         140.5910  139.8515  170.3025 C.3     1  UNL1        0.0853
     17 C         138.4819  141.9135  159.5058 C.3     1  UNL1        0.0730
     18 C         138.2128  140.7776  158.5638 C.3     1  UNL1        0.0294
     19 C         139.3237  140.2205  157.7238 C.3     1  UNL1        0.0666
     20 S         140.0073  138.9493  158.1317 S.3     1  UNL1       -0.0756
     21 C         140.1842  138.6260  159.5858 C.ar    1  UNL1        0.1932
     22 N         139.2147  137.8699  160.4451 N.ar    1  UNL1       -0.1221
     23 N         139.7928  137.7786  161.8262 N.ar    1  UNL1       -0.1282
     24 C         141.1196  138.4784  161.8204 C.ar    1  UNL1        0.1683
     25 N         141.3615  139.0021  160.4357 N.ar    1  UNL1       -0.2884
     26 C         142.5687  139.7675  159.9810 C.3     1  UNL1        0.1340
     27 C         142.0425  138.6281  162.9933 C.ar    1  UNL1        0.0551
     28 C         141.6764  138.0259  164.3175 C.ar    1  UNL1        0.0062
     29 C         142.5993  138.1756  165.4904 C.ar    1  UNL1        0.0208
     30 C         143.8883  138.9276  165.3393 C.ar    1  UNL1        0.0989
     31 N         144.2544  139.5299  164.0152 N.ar    1  UNL1       -0.2422
     32 C         143.3315  139.3802  162.8423 C.ar    1  UNL1        0.1019
@<TRIPOS>BOND
     1    15    16    1
     2    16     1    1
     3     1     2   ar
     4     2     3   ar
     5     3     4   ar
     6     4     5   ar
     7     5     6   ar
     8     6     7   ar
     9     7     8   ar
    10     8     9   ar
    11     6    10    1
    12    10    11    1
    13    11    12    1
    14    12    17    1
    15    17    18    1
    16    18    19    1
    17    19    20    1
    18    20    21    1
    19    21    22   ar
    20    22    23   ar
    21    23    24   ar
    22    24    27    1
    23    27    28   ar
    24    28    29   ar
    25    29    30   ar
    26    30    31   ar
    27    31    32   ar
    28    24    25   ar
    29    25    26    1
    30    12    13    1
    31    13    14    1
    32     9     1   ar
    33    25    21   ar
    34     8     3   ar
    35    32    27   ar
    36    14     5    1
@<TRIPOS>MOLECULE
*****
 32 36 0 0 0
SMALL
GASTEIGER

@<TRIPOS>ATOM
      1 C         142.4503  137.7378  158.4095 C.ar    1  UNL1        0.2057
      2 N         143.2305  137.6442  159.6873 N.ar    1  UNL1       -0.2121
      3 C         142.3266  138.0505  160.8132 C.ar    1  UNL1        0.1182
      4 C         142.5497  138.1511  162.2931 C.ar    1  UNL1        0.0178
      5 C         141.4338  138.5964  163.1912 C.ar    1  UNL1       -0.0230
      6 C         140.0950  138.9410  162.6095 C.ar    1  UNL1       -0.0216
      7 C         139.8718  138.8405  161.1296 C.ar    1  UNL1        0.0346
      8 C         140.9876  138.3952  160.2314 C.ar    1  UNL1        0.1640
      9 O         141.0641  138.2019  158.7459 O.2     1  UNL1       -0.4384
     10 C         138.8571  139.4024  163.3201 C.3     1  UNL1        0.0434
     11 C         138.6526  139.6330  164.7882 C.3     1  UNL1        0.0768
     12 N         139.6353  139.4592  165.9080 N.3     1  UNL1       -0.2720
     13 C         141.0653  139.0119  165.8365 C.3     1  UNL1        0.0768
     14 C         141.8657  138.6279  164.6274 C.3     1  UNL1        0.0434
     15 C         142.4504  136.2222  156.2993 C.3     1  UNL1        0.0102
     16 C         142.9657  137.4227  157.0366 C.3     1  UNL1        0.0853
     17 C         139.1199  139.7743  167.2809 C.3     1  UNL1        0.0730
     18 C         140.0816  139.9963  168.4105 C.3     1  UNL1        0.0294
     19 C         139.9760  141.2324  169.2536 C.3     1  UNL1        0.0666
     20 S         140.6147  142.5098  168.7952 S.3     1  UNL1       -0.0756
     21 C         141.5330  142.5056  167.6092 C.ar    1  UNL1        0.1932
     22 N         142.9924  142.1595  167.6253 N.ar    1  UNL1       -0.1221
     23 N         143.5145  142.2867  166.2248 N.ar    1  UNL1       -0.1282
     24 C         142.3777  142.7115  165.3432 C.ar    1  UNL1        0.1683
     25 N         141.1530  142.8468  166.1988 N.ar    1  UNL1       -0.2884
     26 C         139.7882  143.2521  165.7268 C.3     1  UNL1        0.1340
     27 C         142.4524  142.9578  163.8655 C.ar    1  UNL1        0.0551
     28 C         142.3766  141.8054  162.9082 C.ar    1  UNL1        0.0062
     29 C         142.4513  142.0517  161.4305 C.ar    1  UNL1        0.0208
     30 C         142.6019  143.4504  160.9099 C.ar    1  UNL1        0.0989
     31 N         142.6777  144.6028  161.8671 N.ar    1  UNL1       -0.2422
     32 C         142.6030  144.3565  163.3448 C.ar    1  UNL1        0.1019
@<TRIPOS>BOND
     1    15    16    1
     2    16     1    1
     3     1     2   ar
     4     2     3   ar
     5     3     4   ar
     6     4     5   ar
     7     5     6   ar
     8     6     7   ar
     9     7     8   ar
    10     8     9   ar
    11     6    10    1
    12    10    11    1
    13    11    12    1
    14    12    17    1
    15    17    18    1
    16    18    19    1
    17    19    20    1
    18    20    21    1
    19    21    22   ar
    20    22    23   ar
    21    23    24   ar
    22    24    27    1
    23    27    28   ar
    24    28    29   ar
    25    29    30   ar
    26    30    31   ar
    27    31    32   ar
    28    24    25   ar
    29    25    26    1
    30    12    13    1
    31    13    14    1
    32     9     1   ar
    33    25    21   ar
    34     8     3   ar
    35    32    27   ar
    36    14     5    1
@<TRIPOS>MOLECULE
*****
 32 36 0 0 0
SMALL
GASTEIGER

@<TRIPOS>ATOM
      1 C         140.1117  140.4205  168.9273 C.ar    1  UNL1        0.2057
      2 N         141.5064  140.5114  168.3825 N.ar    1  UNL1       -0.2121
      3 C         141.4939  139.9695  166.9839 C.ar    1  UNL1        0.1182
      4 C         142.5785  139.8087  165.9602 C.ar    1  UNL1        0.0178
      5 C         142.2606  139.2221  164.6166 C.ar    1  UNL1       -0.0230
      6 C         140.8583  138.7964  164.2970 C.ar    1  UNL1       -0.0216
      7 C         139.7738  138.9571  165.3207 C.ar    1  UNL1        0.0346
      8 C         140.0916  139.5437  166.6642 C.ar    1  UNL1        0.1640
      9 O         139.2374  139.8225  167.8653 O.2     1  UNL1       -0.4384
     10 C         140.3300  138.1936  163.0291 C.3     1  UNL1        0.0434
     11 C         141.0736  137.8677  161.7677 C.3     1  UNL1        0.0768
     12 N         142.5290  138.0641  161.4628 N.3     1  UNL1       -0.2720
     13 C         143.6004  138.6349  162.3439 C.3     1  UNL1        0.0768
     14 C         143.4810  139.1503  163.7475 C.3     1  UNL1        0.0434
     15 C         140.2972  142.0499  170.9424 C.3     1  UNL1        0.0102
     16 C         139.6691  140.8520  170.2940 C.3     1  UNL1        0.0853
     17 C         142.9716  137.6327  160.0961 C.3     1  UNL1        0.0730
     18 C         142.9519  138.6097  158.9580 C.3     1  UNL1        0.0294
     19 C         143.7252  139.8913  159.0562 C.3     1  UNL1        0.0666
     20 S         143.0300  141.2043  158.8503 S.3     1  UNL1       -0.0756
     21 C         142.8485  142.1459  160.0037 C.ar    1  UNL1        0.1932
     22 N         143.7794  143.2570  160.3897 N.ar    1  UNL1       -0.1221
     23 N         143.2106  143.9396  161.5982 N.ar    1  UNL1       -0.1282
     24 C         141.9281  143.2503  161.9591 C.ar    1  UNL1        0.1683
     25 N         141.7043  142.1418  160.9736 N.ar    1  UNL1       -0.2884
     26 C         140.5406  141.1954  160.9604 C.3     1  UNL1        0.1340
     27 C         141.0274  143.6070  163.1044 C.ar    1  UNL1        0.0551
     28 C         141.0607  142.7957  164.3655 C.ar    1  UNL1        0.0062
     29 C         140.1601  143.1523  165.5108 C.ar    1  UNL1        0.0208
     30 C         139.2261  144.3203  165.3950 C.ar    1  UNL1        0.0989
     31 N         139.1929  145.1317  164.1338 N.ar    1  UNL1       -0.2422
     32 C         140.0935  144.7750  162.9885 C.ar    1  UNL1        0.1019
@<TRIPOS>BOND
     1    15    16    1
     2    16     1    1
     3     1     2   ar
     4     2     3   ar
     5     3     4   ar
     6     4     5   ar
     7     5     6   ar
     8     6     7   ar
     9     7     8   ar
    10     8     9   ar
    11     6    10    1
    12    10    11    1
    13    11    12    1
    14    12    17    1
    15    17    18    1
    16    18    19    1
    17    19    20    1
    18    20    21    1
    19    21    22   ar
    20    22    23   ar
    21    23    24   ar
    22    24    27    1
    23    27    28   ar
    24    28    29   ar
    25    29    30   ar
    26    30    31   ar
    27    31    32   ar
    28    24    25   ar
    29    25    26    1
    30    12    13    1
    31    13    14    1
    32     9     1   ar
    33    25    21   ar
    34     8     3   ar
    35    32    27   ar
    36    14     5    1
@<TRIPOS>MOLECULE
*****
 32 36 0 0 0
SMALL
GASTEIGER

@<TRIPOS>ATOM
      1 C         141.8506  141.2839  169.0161 C.ar    1  UNL1        0.2057
      2 N         142.5203  140.1627  168.2781 N.ar    1  UNL1       -0.2121
      3 C         141.8394  140.0099  166.9503 C.ar    1  UNL1        0.1182
      4 C         142.0716  139.0685  165.8058 C.ar    1  UNL1        0.0178
      5 C         141.2132  139.1538  164.5786 C.ar    1  UNL1       -0.0230
      6 C         140.1228  140.1804  164.4960 C.ar    1  UNL1       -0.0216
      7 C         139.8906  141.1218  165.6404 C.ar    1  UNL1        0.0346
      8 C         140.7490  141.0366  166.8676 C.ar    1  UNL1        0.1640
      9 O         140.7559  141.8239  168.1443 O.2     1  UNL1       -0.4384
     10 C         139.1602  140.4341  163.3738 C.3     1  UNL1        0.0434
     11 C         139.0504  139.7237  162.0572 C.3     1  UNL1        0.0768
     12 N         139.8760  138.5843  161.5377 N.3     1  UNL1       -0.2720
     13 C         141.0153  137.8737  162.2063 C.3     1  UNL1        0.0768
     14 C         141.6105  138.1272  163.5596 C.3     1  UNL1        0.0434
     15 C         143.0065  143.0410  170.5413 C.3     1  UNL1        0.0102
     16 C         142.2121  141.7782  170.3854 C.3     1  UNL1        0.0853
     17 C         139.5144  138.0900  160.1684 C.3     1  UNL1        0.0730
     18 C         140.0746  138.7689  158.9537 C.3     1  UNL1        0.0294
     19 C         141.2758  138.1964  158.2614 C.3     1  UNL1        0.0666
     20 S         142.5646  138.9635  158.2384 S.3     1  UNL1       -0.0756
     21 C         143.1242  139.5279  159.5105 C.ar    1  UNL1        0.1932
     22 N         144.0884  138.8402  160.4311 N.ar    1  UNL1       -0.1221
     23 N         144.3780  139.7664  161.5749 N.ar    1  UNL1       -0.1282
     24 C         143.5928  141.0265  161.3613 C.ar    1  UNL1        0.1683
     25 N         142.8179  140.8791  160.0854 N.ar    1  UNL1       -0.2884
     26 C         141.8983  141.9031  159.4891 C.3     1  UNL1        0.1340
     27 C         143.5841  142.2238  162.2648 C.ar    1  UNL1        0.0551
     28 C         142.9299  142.1418  163.6121 C.ar    1  UNL1        0.0062
     29 C         142.9211  143.3391  164.5157 C.ar    1  UNL1        0.0208
     30 C         143.5665  144.6184  164.0720 C.ar    1  UNL1        0.0989
     31 N         144.2207  144.7003  162.7246 N.ar    1  UNL1       -0.2422
     32 C         144.2295  143.5030  161.8211 C.ar    1  UNL1        0.1019
@<TRIPOS>BOND
     1    15    16    1
     2    16     1    1
     3     1     2   ar
     4     2     3   ar
     5     3     4   ar
     6     4     5   ar
     7     5     6   ar
     8     6     7   ar
     9     7     8   ar
    10     8     9   ar
    11     6    10    1
    12    10    11    1
    13    11    12    1
    14    12    17    1
    15    17    18    1
    16    18    19    1
    17    19    20    1
    18    20    21    1
    19    21    22   ar
    20    22    23   ar
    21    23    24   ar
    22    24    27    1
    23    27    28   ar
    24    28    29   ar
    25    29    30   ar
    26    30    31   ar
    27    31    32   ar
    28    24    25   ar
    29    25    26    1
    30    12    13    1
    31    13    14    1
    32     9     1   ar
    33    25    21   ar
    34     8     3   ar
    35    32    27   ar
    36    14     5    1
@<TRIPOS>MOLECULE
*****
 32 36 0 0 0
SMALL
GASTEIGER

@<TRIPOS>ATOM
      1 C         141.0363  145.5632  158.4101 C.ar    1  UNL1        0.2057
      2 N         139.9102  145.6032  159.4003 N.ar    1  UNL1       -0.2121
      3 C         140.3966  144.9911  160.6804 C.ar    1  UNL1        0.1182
      4 C         139.7247  144.7606  162.0015 C.ar    1  UNL1        0.0178
      5 C         140.4795  144.1116  163.1237 C.ar    1  UNL1       -0.0230
      6 C         141.9060  143.6933  162.9247 C.ar    1  UNL1       -0.0216
      7 C         142.5780  143.9238  161.6036 C.ar    1  UNL1        0.0346
      8 C         141.8233  144.5727  160.4814 C.ar    1  UNL1        0.1640
      9 O         142.2186  144.9263  159.0783 O.2     1  UNL1       -0.4384
     10 C         142.8330  143.0355  163.9036 C.3     1  UNL1        0.0434
     11 C         142.5621  142.6336  165.3232 C.3     1  UNL1        0.0768
     12 N         141.2975  142.7902  166.1144 N.3     1  UNL1       -0.2720
     13 C         139.9914  143.3875  165.6816 C.3     1  UNL1        0.0768
     14 C         139.6273  143.9756  164.3506 C.3     1  UNL1        0.0434
     15 C         139.7387  146.7142  156.4758 C.3     1  UNL1        0.0102
     16 C         140.9885  146.0710  156.9995 C.3     1  UNL1        0.0853
     17 C         141.3453  142.2825  167.5251 C.3     1  UNL1        0.0730
     18 C         140.1916  141.5011  168.0805 C.3     1  UNL1        0.0294
     19 C         140.0549  140.0405  167.7675 C.3     1  UNL1        0.0666
     20 S         140.4313  139.5261  166.4097 S.3     1  UNL1       -0.0756
     21 C         139.6076  139.8970  165.2123 C.ar    1  UNL1        0.1932
     22 N         138.1710  140.3284  165.2297 N.ar    1  UNL1       -0.1221
     23 N         137.7514  140.5998  163.8154 N.ar    1  UNL1       -0.1282
     24 C         138.9286  140.3361  162.9239 C.ar    1  UNL1        0.1683
     25 N         140.0758  139.9018  163.7872 N.ar    1  UNL1       -0.2884
     26 C         141.4499  139.5365  163.3094 C.3     1  UNL1        0.1340
     27 C         138.9541  140.4813  161.4312 C.ar    1  UNL1        0.0551
     28 C         140.0340  141.2892  160.7746 C.ar    1  UNL1        0.0062
     29 C         140.0595  141.4344  159.2818 C.ar    1  UNL1        0.0208
     30 C         139.0052  140.7717  158.4456 C.ar    1  UNL1        0.0989
     31 N         137.9254  139.9638  159.1023 N.ar    1  UNL1       -0.2422
     32 C         137.8998  139.8186  160.5950 C.ar    1  UNL1        0.1019
@<TRIPOS>BOND
     1    15    16    1
     2    16     1    1
     3     1     2   ar
     4     2     3   ar
     5     3     4   ar
     6     4     5   ar
     7     5     6   ar
     8     6     7   ar
     9     7     8   ar
    10     8     9   ar
    11     6    10    1
    12    10    11    1
    13    11    12    1
    14    12    17    1
    15    17    18    1
    16    18    19    1
    17    19    20    1
    18    20    21    1
    19    21    22   ar
    20    22    23   ar
    21    23    24   ar
    22    24    27    1
    23    27    28   ar
    24    28    29   ar
    25    29    30   ar
    26    30    31   ar
    27    31    32   ar
    28    24    25   ar
    29    25    26    1
    30    12    13    1
    31    13    14    1
    32     9     1   ar
    33    25    21   ar
    34     8     3   ar
    35    32    27   ar
    36    14     5    1
