@<TRIPOS>MOLECULE
*****
 32 36 0 0 0
SMALL
GASTEIGER

@<TRIPOS>ATOM
      1 C         141.2858  142.5592  162.6298 C.ar    1  UNL1        0.0148
      2 C         140.2701  141.4811  162.8668 C.ar    1  UNL1        0.0797
      3 N         140.5004  140.9210  164.2391 N.ar    1  UNL1       -0.3049
      4 C         141.6584  141.6529  164.8503 C.ar    1  UNL1        0.0641
      5 C         142.3335  141.5282  166.1839 C.ar    1  UNL1        0.0184
      6 C         143.4940  142.4159  166.5229 C.ar    1  UNL1        0.0129
      7 C         143.9795  143.4284  165.5283 C.ar    1  UNL1        0.0578
      8 CL        145.1401  144.3162  165.8673 Cl      1  UNL1       -0.0822
      9 C         143.3043  143.5531  164.1946 C.ar    1  UNL1        0.0129
     10 C         142.1438  142.6653  163.8556 C.ar    1  UNL1        0.0181
     11 C         139.7112  139.8220  164.8867 C.ar    1  UNL1        0.0642
     12 C         138.8653  140.1149  166.0904 C.ar    1  UNL1        0.0198
     13 C         138.0761  139.0159  166.7379 C.ar    1  UNL1        0.0311
     14 C         138.1328  137.6239  166.1819 C.ar    1  UNL1        0.1402
     15 F         137.3436  136.5249  166.8294 F       1  UNL1       -0.2042
     16 C         138.9786  137.3310  164.9782 C.ar    1  UNL1        0.0311
     17 C         139.7678  138.4301  164.3307 C.ar    1  UNL1        0.0198
     18 N         141.6883  145.0396  158.8967 N.3     1  UNL1       -0.2672
     19 C         140.7074  145.4375  159.9594 C.3     1  UNL1        0.0986
     20 C         140.5732  144.6107  161.2038 C.2     1  UNL1       -0.0130
     21 C         141.4200  143.3859  161.3855 C.2     1  UNL1       -0.0222
     22 C         142.4009  142.9881  160.3228 C.3     1  UNL1        0.0434
     23 C         142.5351  143.8149  159.0784 C.3     1  UNL1        0.0771
     24 C         141.8225  145.8664  157.6524 C.3     1  UNL1        0.0942
     25 C         141.4375  145.2884  156.3228 C.3     1  UNL1        0.1123
     26 O         140.0939  147.9212  154.9397 O.2     1  UNL1       -0.2526
     27 C         139.4058  146.6140  155.2003 C.2     1  UNL1        0.3041
     28 N         137.9793  146.2875  154.8709 N.am    1  UNL1       -0.2870
     29 C         137.7153  144.8757  155.3030 C.3     1  UNL1        0.1124
     30 C         138.9786  144.3295  155.8995 C.3     1  UNL1        0.1162
     31 N         140.0234  145.4039  155.8360 N.am    1  UNL1       -0.2610
     32 H         137.3303  146.8935  154.4457 H       1  UNL1        0.1510
@<TRIPOS>BOND
     1    26    27    2
     2    27    28   am
     3    28    29    1
     4    29    30    1
     5    30    31    1
     6    31    25    1
     7    25    24    1
     8    24    18    1
     9    18    19    1
    10    19    20    1
    11    20    21    2
    12    21     1    1
    13     1     2   ar
    14     2     3   ar
    15     3    11    1
    16    11    12   ar
    17    12    13   ar
    18    13    14   ar
    19    14    15    1
    20    14    16   ar
    21    16    17   ar
    22     3     4   ar
    23     4     5   ar
    24     5     6   ar
    25     6     7   ar
    26     7     8    1
    27     7     9   ar
    28     9    10   ar
    29    21    22    1
    30    22    23    1
    31    31    27   am
    32    23    18    1
    33    10     1   ar
    34    17    11   ar
    35    10     4   ar
    36    28    32    1
@<TRIPOS>MOLECULE
*****
 32 36 0 0 0
SMALL
GASTEIGER

@<TRIPOS>ATOM
      1 C         141.0356  142.6380  163.1459 C.ar    1  UNL1        0.0148
      2 C         141.6028  143.1779  164.4252 C.ar    1  UNL1        0.0797
      3 N         141.2102  142.2482  165.5350 N.ar    1  UNL1       -0.3049
      4 C         140.4004  141.1337  164.9415 C.ar    1  UNL1        0.0641
      5 C         139.7474  139.9307  165.5549 C.ar    1  UNL1        0.0184
      6 C         138.9864  138.9686  164.6916 C.ar    1  UNL1        0.0129
      7 C         138.8785  139.2095  163.2150 C.ar    1  UNL1        0.0578
      8 CL        138.1175  138.2473  162.3518 Cl      1  UNL1       -0.0822
      9 C         139.5315  140.4125  162.6017 C.ar    1  UNL1        0.0129
     10 C         140.2925  141.3746  163.4649 C.ar    1  UNL1        0.0181
     11 C         141.5651  142.4054  166.9839 C.ar    1  UNL1        0.0642
     12 C         142.9623  142.1195  167.4492 C.ar    1  UNL1        0.0198
     13 C         143.3172  142.2766  168.8981 C.ar    1  UNL1        0.0311
     14 C         142.2751  142.7197  169.8817 C.ar    1  UNL1        0.1402
     15 F         142.6300  142.8768  171.3307 F       1  UNL1       -0.2042
     16 C         140.8780  143.0055  169.4165 C.ar    1  UNL1        0.0311
     17 C         140.5231  142.8484  167.9676 C.ar    1  UNL1        0.0198
     18 N         141.4845  144.4841  159.0666 N.3     1  UNL1       -0.2672
     19 C         142.5342  143.5463  159.5850 C.3     1  UNL1        0.0986
     20 C         142.3846  142.9309  160.9448 C.2     1  UNL1       -0.0130
     21 C         141.1852  143.2534  161.7861 C.2     1  UNL1       -0.0222
     22 C         140.1357  144.1911  161.2676 C.3     1  UNL1        0.0434
     23 C         140.2853  144.8065  159.9079 C.3     1  UNL1        0.0771
     24 C         141.6341  145.0995  157.7068 C.3     1  UNL1        0.0942
     25 C         140.6857  146.1725  157.2607 C.3     1  UNL1        0.1123
     26 O         138.8604  148.3144  155.6084 O.2     1  UNL1       -0.2526
     27 C         138.7183  146.8216  155.5717 C.2     1  UNL1        0.3041
     28 N         137.7122  146.0512  154.7690 N.am    1  UNL1       -0.2870
     29 C         137.9294  144.5906  155.0324 C.3     1  UNL1        0.1124
     30 C         139.0697  144.4583  155.9979 C.3     1  UNL1        0.1162
     31 N         139.5572  145.8370  156.3312 N.am    1  UNL1       -0.2610
     32 H         137.0292  146.4365  154.1739 H       1  UNL1        0.1510
@<TRIPOS>BOND
     1    26    27    2
     2    27    28   am
     3    28    29    1
     4    29    30    1
     5    30    31    1
     6    31    25    1
     7    25    24    1
     8    24    18    1
     9    18    19    1
    10    19    20    1
    11    20    21    2
    12    21     1    1
    13     1     2   ar
    14     2     3   ar
    15     3    11    1
    16    11    12   ar
    17    12    13   ar
    18    13    14   ar
    19    14    15    1
    20    14    16   ar
    21    16    17   ar
    22     3     4   ar
    23     4     5   ar
    24     5     6   ar
    25     6     7   ar
    26     7     8    1
    27     7     9   ar
    28     9    10   ar
    29    21    22    1
    30    22    23    1
    31    31    27   am
    32    23    18    1
    33    10     1   ar
    34    17    11   ar
    35    10     4   ar
    36    28    32    1
@<TRIPOS>MOLECULE
*****
 32 36 0 0 0
SMALL
GASTEIGER

@<TRIPOS>ATOM
      1 C         144.8898  142.1625  158.4163 C.ar    1  UNL1        0.0148
      2 C         146.0382  142.8239  157.7137 C.ar    1  UNL1        0.0797
      3 N         146.3289  142.0444  156.4656 N.ar    1  UNL1       -0.3049
      4 C         145.3602  140.9012  156.3968 C.ar    1  UNL1        0.0641
      5 C         145.1730  139.8032  155.3922 C.ar    1  UNL1        0.0184
      6 C         144.0965  138.7782  155.5933 C.ar    1  UNL1        0.0129
      7 C         143.2071  138.8512  156.7989 C.ar    1  UNL1        0.0578
      8 CL        142.1305  137.8261  157.0000 Cl      1  UNL1       -0.0822
      9 C         143.3942  139.9492  157.8036 C.ar    1  UNL1        0.0129
     10 C         144.4708  140.9742  157.6025 C.ar    1  UNL1        0.0181
     11 C         147.4002  142.3537  155.4622 C.ar    1  UNL1        0.0642
     12 C         147.1416  143.3516  154.3725 C.ar    1  UNL1        0.0198
     13 C         148.2129  143.6609  153.3692 C.ar    1  UNL1        0.0311
     14 C         149.5427  142.9724  153.4555 C.ar    1  UNL1        0.1402
     15 F         150.6141  143.2817  152.4522 F       1  UNL1       -0.2042
     16 C         149.8012  141.9745  154.5452 C.ar    1  UNL1        0.0311
     17 C         148.7299  141.6652  155.5485 C.ar    1  UNL1        0.0198
     18 N         143.0285  143.5071  162.2865 N.3     1  UNL1       -0.2672
     19 C         142.2861  143.6855  160.9954 C.3     1  UNL1        0.0986
     20 C         142.9065  143.2373  159.7053 C.2     1  UNL1       -0.0130
     21 C         144.2694  142.6107  159.7064 C.2     1  UNL1       -0.0222
     22 C         145.0118  142.4323  160.9975 C.3     1  UNL1        0.0434
     23 C         144.3913  142.8805  162.2875 C.3     1  UNL1        0.0771
     24 C         142.4081  143.9553  163.5765 C.3     1  UNL1        0.0942
     25 C         141.3780  145.0457  163.5744 C.3     1  UNL1        0.1123
     26 O         139.3260  146.2158  161.3229 O.2     1  UNL1       -0.2526
     27 C         138.9803  145.2409  162.4091 C.2     1  UNL1        0.3041
     28 N         137.6307  144.6326  162.6512 N.am    1  UNL1       -0.2870
     29 C         137.7398  143.7189  163.8357 C.3     1  UNL1        0.1124
     30 C         139.1568  143.7624  164.3257 C.3     1  UNL1        0.1162
     31 N         139.9235  144.7030  163.4441 N.am    1  UNL1       -0.2610
     32 H         136.8163  144.8032  162.1250 H       1  UNL1        0.1510
@<TRIPOS>BOND
     1    26    27    2
     2    27    28   am
     3    28    29    1
     4    29    30    1
     5    30    31    1
     6    31    25    1
     7    25    24    1
     8    24    18    1
     9    18    19    1
    10    19    20    1
    11    20    21    2
    12    21     1    1
    13     1     2   ar
    14     2     3   ar
    15     3    11    1
    16    11    12   ar
    17    12    13   ar
    18    13    14   ar
    19    14    15    1
    20    14    16   ar
    21    16    17   ar
    22     3     4   ar
    23     4     5   ar
    24     5     6   ar
    25     6     7   ar
    26     7     8    1
    27     7     9   ar
    28     9    10   ar
    29    21    22    1
    30    22    23    1
    31    31    27   am
    32    23    18    1
    33    10     1   ar
    34    17    11   ar
    35    10     4   ar
    36    28    32    1
@<TRIPOS>MOLECULE
*****
 32 36 0 0 0
SMALL
GASTEIGER

@<TRIPOS>ATOM
      1 C         143.1544  142.7955  162.2941 C.ar    1  UNL1        0.0148
      2 C         144.0045  142.0163  161.3349 C.ar    1  UNL1        0.0797
      3 N         143.6499  142.4500  159.9434 N.ar    1  UNL1       -0.3049
      4 C         142.5806  143.4973  160.0427 C.ar    1  UNL1        0.0641
      5 C         141.8462  144.2841  158.9980 C.ar    1  UNL1        0.0184
      6 C         140.8056  145.2844  159.4060 C.ar    1  UNL1        0.0129
      7 C         140.4994  145.4979  160.8588 C.ar    1  UNL1        0.0578
      8 CL        139.4588  146.4983  161.2668 Cl      1  UNL1       -0.0822
      9 C         141.2338  144.7111  161.9036 C.ar    1  UNL1        0.0129
     10 C         142.2744  143.7108  161.4955 C.ar    1  UNL1        0.0181
     11 C         144.2578  141.9282  158.6753 C.ar    1  UNL1        0.0642
     12 C         145.4865  142.5770  158.1101 C.ar    1  UNL1        0.0198
     13 C         146.0944  142.0552  156.8420 C.ar    1  UNL1        0.0311
     14 C         145.4736  140.8845  156.1391 C.ar    1  UNL1        0.1402
     15 F         146.0815  140.3626  154.8709 F       1  UNL1       -0.2042
     16 C         144.2450  140.2357  156.7042 C.ar    1  UNL1        0.0311
     17 C         143.6371  140.7575  157.9724 C.ar    1  UNL1        0.0198
     18 N         143.2308  142.4482  166.7801 N.3     1  UNL1       -0.2672
     19 C         144.3344  143.1697  166.0648 C.3     1  UNL1        0.0986
     20 C         144.3089  143.2855  164.5695 C.2     1  UNL1       -0.0130
     21 C         143.1799  142.6797  163.7894 C.2     1  UNL1       -0.0222
     22 C         142.0764  141.9582  164.5047 C.3     1  UNL1        0.0434
     23 C         142.1019  141.8425  166.0000 C.3     1  UNL1        0.0771
     24 C         143.2563  142.3324  168.2754 C.3     1  UNL1        0.0942
     25 C         142.8383  141.0521  168.9357 C.3     1  UNL1        0.1123
     26 O         141.6162  142.1740  171.7459 O.2     1  UNL1       -0.2526
     27 C         140.8652  141.3966  170.7058 C.2     1  UNL1        0.3041
     28 N         139.4207  140.9985  170.7747 N.am    1  UNL1       -0.2870
     29 C         139.0897  140.2367  169.5258 C.3     1  UNL1        0.1124
     30 C         140.3297  140.1641  168.6848 C.3     1  UNL1        0.1162
     31 N         141.4270  140.8809  169.4141 N.am    1  UNL1       -0.2610
     32 H         138.7990  141.2015  171.5106 H       1  UNL1        0.1510
@<TRIPOS>BOND
     1    26    27    2
     2    27    28   am
     3    28    29    1
     4    29    30    1
     5    30    31    1
     6    31    25    1
     7    25    24    1
     8    24    18    1
     9    18    19    1
    10    19    20    1
    11    20    21    2
    12    21     1    1
    13     1     2   ar
    14     2     3   ar
    15     3    11    1
    16    11    12   ar
    17    12    13   ar
    18    13    14   ar
    19    14    15    1
    20    14    16   ar
    21    16    17   ar
    22     3     4   ar
    23     4     5   ar
    24     5     6   ar
    25     6     7   ar
    26     7     8    1
    27     7     9   ar
    28     9    10   ar
    29    21    22    1
    30    22    23    1
    31    31    27   am
    32    23    18    1
    33    10     1   ar
    34    17    11   ar
    35    10     4   ar
    36    28    32    1
@<TRIPOS>MOLECULE
*****
 32 36 0 0 0
SMALL
GASTEIGER

@<TRIPOS>ATOM
      1 C         141.1518  140.2574  162.5324 C.ar    1  UNL1        0.0148
      2 C         141.1684  139.5639  163.8624 C.ar    1  UNL1        0.0797
      3 N         141.0056  140.6050  164.9299 N.ar    1  UNL1       -0.3049
      4 C         140.8884  141.9418  164.2597 C.ar    1  UNL1        0.0641
      5 C         140.7111  143.3270  164.8073 C.ar    1  UNL1        0.0184
      6 C         140.6241  144.4973  163.8731 C.ar    1  UNL1        0.0129
      7 C         140.7144  144.2824  162.3913 C.ar    1  UNL1        0.0578
      8 CL        140.6274  145.4528  161.4571 Cl      1  UNL1       -0.0822
      9 C         140.8917  142.8973  161.8437 C.ar    1  UNL1        0.0129
     10 C         140.9787  141.7270  162.7779 C.ar    1  UNL1        0.0181
     11 C         140.9669  140.3534  166.4081 C.ar    1  UNL1        0.0642
     12 C         139.6691  140.4587  167.1531 C.ar    1  UNL1        0.0198
     13 C         139.6303  140.2071  168.6314 C.ar    1  UNL1        0.0311
     14 C         140.8892  139.8503  169.3647 C.ar    1  UNL1        0.1402
     15 F         140.8505  139.5988  170.8429 F       1  UNL1       -0.2042
     16 C         142.1869  139.7451  168.6198 C.ar    1  UNL1        0.0311
     17 C         142.2257  139.9966  167.1415 C.ar    1  UNL1        0.0198
     18 N         141.5509  138.2766  158.5115 N.3     1  UNL1       -0.2672
     19 C         140.1923  138.6179  159.0478 C.3     1  UNL1        0.0986
     20 C         140.0592  139.2782  160.3881 C.2     1  UNL1       -0.0130
     21 C         141.2849  139.5971  161.1921 C.2     1  UNL1       -0.0222
     22 C         142.6434  139.2558  160.6557 C.3     1  UNL1        0.0434
     23 C         142.7764  138.5955  159.3154 C.3     1  UNL1        0.0771
     24 C         141.6840  137.6164  157.1712 C.3     1  UNL1        0.0942
     25 C         142.8852  136.7708  156.8676 C.3     1  UNL1        0.1123
     26 O         140.8977  135.2889  154.7456 O.2     1  UNL1       -0.2526
     27 C         141.8200  134.6082  155.7130 C.2     1  UNL1        0.3041
     28 N         141.9906  133.1267  155.8749 N.am    1  UNL1       -0.2870
     29 C         143.0096  132.8923  156.9503 C.3     1  UNL1        0.1124
     30 C         143.4688  134.2289  157.4531 C.3     1  UNL1        0.1162
     31 N         142.7336  135.2893  156.6884 N.am    1  UNL1       -0.2610
     32 H         141.5170  132.4305  155.3649 H       1  UNL1        0.1510
@<TRIPOS>BOND
     1    26    27    2
     2    27    28   am
     3    28    29    1
     4    29    30    1
     5    30    31    1
     6    31    25    1
     7    25    24    1
     8    24    18    1
     9    18    19    1
    10    19    20    1
    11    20    21    2
    12    21     1    1
    13     1     2   ar
    14     2     3   ar
    15     3    11    1
    16    11    12   ar
    17    12    13   ar
    18    13    14   ar
    19    14    15    1
    20    14    16   ar
    21    16    17   ar
    22     3     4   ar
    23     4     5   ar
    24     5     6   ar
    25     6     7   ar
    26     7     8    1
    27     7     9   ar
    28     9    10   ar
    29    21    22    1
    30    22    23    1
    31    31    27   am
    32    23    18    1
    33    10     1   ar
    34    17    11   ar
    35    10     4   ar
    36    28    32    1
@<TRIPOS>MOLECULE
*****
 32 36 0 0 0
SMALL
GASTEIGER

@<TRIPOS>ATOM
      1 C         141.5494  141.1368  162.7383 C.ar    1  UNL1        0.0148
      2 C         141.6408  140.3162  163.9906 C.ar    1  UNL1        0.0797
      3 N         141.0750  141.1272  165.1185 N.ar    1  UNL1       -0.3049
      4 C         140.6339  142.4490  164.5633 C.ar    1  UNL1        0.0641
      5 C         140.0031  143.6479  165.2071 C.ar    1  UNL1        0.0184
      6 C         139.6656  144.8528  164.3799 C.ar    1  UNL1        0.0129
      7 C         139.9588  144.8587  162.9089 C.ar    1  UNL1        0.0578
      8 CL        139.6212  146.0637  162.0817 Cl      1  UNL1       -0.0822
      9 C         140.5896  143.6598  162.2650 C.ar    1  UNL1        0.0129
     10 C         140.9271  142.4549  163.0922 C.ar    1  UNL1        0.0181
     11 C         140.9688  140.6927  166.5503 C.ar    1  UNL1        0.0642
     12 C         139.6229  140.5865  167.2040 C.ar    1  UNL1        0.0198
     13 C         139.5168  140.1520  168.6358 C.ar    1  UNL1        0.0311
     14 C         140.7565  139.8237  169.4138 C.ar    1  UNL1        0.1402
     15 F         140.6503  139.3892  170.8456 F       1  UNL1       -0.2042
     16 C         142.1023  139.9299  168.7601 C.ar    1  UNL1        0.0311
     17 C         142.2084  140.3644  167.3283 C.ar    1  UNL1        0.0198
     18 N         142.9043  139.8671  158.6392 N.3     1  UNL1       -0.2672
     19 C         141.5098  140.3809  158.8425 C.3     1  UNL1        0.0986
     20 C         141.0581  140.8041  160.2088 C.2     1  UNL1       -0.0130
     21 C         142.0011  140.7136  161.3720 C.2     1  UNL1       -0.0222
     22 C         143.3955  140.1998  161.1686 C.3     1  UNL1        0.0434
     23 C         143.8472  139.7766  159.8023 C.3     1  UNL1        0.0771
     24 C         143.3559  139.4439  157.2728 C.3     1  UNL1        0.0942
     25 C         143.7210  140.4783  156.2498 C.3     1  UNL1        0.1123
     26 O         144.2074  142.9153  158.3649 O.2     1  UNL1       -0.2526
     27 C         145.2075  142.3930  157.3764 C.2     1  UNL1        0.3041
     28 N         146.6067  142.8991  157.1867 N.am    1  UNL1       -0.2870
     29 C         147.2479  142.0918  156.0972 C.3     1  UNL1        0.1124
     30 C         146.2449  141.0867  155.6136 C.3     1  UNL1        0.1162
     31 N         144.9840  141.2728  156.4042 N.am    1  UNL1       -0.2610
     32 H         147.0299  143.6324  157.6890 H       1  UNL1        0.1510
@<TRIPOS>BOND
     1    26    27    2
     2    27    28   am
     3    28    29    1
     4    29    30    1
     5    30    31    1
     6    31    25    1
     7    25    24    1
     8    24    18    1
     9    18    19    1
    10    19    20    1
    11    20    21    2
    12    21     1    1
    13     1     2   ar
    14     2     3   ar
    15     3    11    1
    16    11    12   ar
    17    12    13   ar
    18    13    14   ar
    19    14    15    1
    20    14    16   ar
    21    16    17   ar
    22     3     4   ar
    23     4     5   ar
    24     5     6   ar
    25     6     7   ar
    26     7     8    1
    27     7     9   ar
    28     9    10   ar
    29    21    22    1
    30    22    23    1
    31    31    27   am
    32    23    18    1
    33    10     1   ar
    34    17    11   ar
    35    10     4   ar
    36    28    32    1
@<TRIPOS>MOLECULE
*****
 32 36 0 0 0
SMALL
GASTEIGER

@<TRIPOS>ATOM
      1 C         141.3011  140.7393  163.5561 C.ar    1  UNL1        0.0148
      2 C         141.4255  140.1765  164.9409 C.ar    1  UNL1        0.0797
      3 N         140.8951  141.1959  165.9049 N.ar    1  UNL1       -0.3049
      4 C         140.4428  142.3888  165.1159 C.ar    1  UNL1        0.0641
      5 C         139.8349  143.6955  165.5318 C.ar    1  UNL1        0.0184
      6 C         139.4780  144.7200  164.4960 C.ar    1  UNL1        0.0129
      7 C         139.7289  144.4378  163.0443 C.ar    1  UNL1        0.0578
      8 CL        139.3720  145.4624  162.0084 Cl      1  UNL1       -0.0822
      9 C         140.3368  143.1311  162.6284 C.ar    1  UNL1        0.0129
     10 C         140.6938  142.1066  163.6642 C.ar    1  UNL1        0.0181
     11 C         140.8285  141.0484  167.3962 C.ar    1  UNL1        0.0642
     12 C         141.9725  141.5137  168.2477 C.ar    1  UNL1        0.0198
     13 C         141.9059  141.3662  169.7389 C.ar    1  UNL1        0.0311
     14 C         140.6955  140.7534  170.3787 C.ar    1  UNL1        0.1402
     15 F         140.6289  140.6059  171.8699 F       1  UNL1       -0.2042
     16 C         139.5516  140.2882  169.5272 C.ar    1  UNL1        0.0311
     17 C         139.6181  140.4357  168.0360 C.ar    1  UNL1        0.0198
     18 N         142.5335  138.6865  159.7459 N.3     1  UNL1       -0.2672
     19 C         141.1025  138.6407  160.1935 C.3     1  UNL1        0.0986
     20 C         140.6917  139.3250  161.4636 C.2     1  UNL1       -0.0130
     21 C         141.7119  140.0551  162.2860 C.2     1  UNL1       -0.0222
     22 C         143.1428  140.1008  161.8384 C.3     1  UNL1        0.0434
     23 C         143.5536  139.4165  160.5683 C.3     1  UNL1        0.0771
     24 C         142.9443  138.0022  158.4758 C.3     1  UNL1        0.0942
     25 C         142.0263  138.0088  157.2896 C.3     1  UNL1        0.1123
     26 O         144.7971  137.4315  155.6651 O.2     1  UNL1       -0.2526
     27 C         143.4854  136.7378  155.4455 C.2     1  UNL1        0.3041
     28 N         143.2170  135.6569  154.4407 N.am    1  UNL1       -0.2870
     29 C         141.7776  135.2542  154.5664 C.3     1  UNL1        0.1124
     30 C         141.1564  136.0862  155.6488 C.3     1  UNL1        0.1162
     31 N         142.2118  137.0031  156.1922 N.am    1  UNL1       -0.2610
     32 H         143.8708  135.2782  153.8096 H       1  UNL1        0.1510
@<TRIPOS>BOND
     1    26    27    2
     2    27    28   am
     3    28    29    1
     4    29    30    1
     5    30    31    1
     6    31    25    1
     7    25    24    1
     8    24    18    1
     9    18    19    1
    10    19    20    1
    11    20    21    2
    12    21     1    1
    13     1     2   ar
    14     2     3   ar
    15     3    11    1
    16    11    12   ar
    17    12    13   ar
    18    13    14   ar
    19    14    15    1
    20    14    16   ar
    21    16    17   ar
    22     3     4   ar
    23     4     5   ar
    24     5     6   ar
    25     6     7   ar
    26     7     8    1
    27     7     9   ar
    28     9    10   ar
    29    21    22    1
    30    22    23    1
    31    31    27   am
    32    23    18    1
    33    10     1   ar
    34    17    11   ar
    35    10     4   ar
    36    28    32    1
@<TRIPOS>MOLECULE
*****
 32 36 0 0 0
SMALL
GASTEIGER

@<TRIPOS>ATOM
      1 C         140.8048  142.0406  162.1625 C.ar    1  UNL1        0.0148
      2 C         139.6744  141.2824  162.7928 C.ar    1  UNL1        0.0797
      3 N         140.2492  140.3879  163.8508 N.ar    1  UNL1       -0.3049
      4 C         141.7349  140.5932  163.8744 C.ar    1  UNL1        0.0641
      5 C         142.8194  139.9820  164.7112 C.ar    1  UNL1        0.0184
      6 C         144.2473  140.3923  164.5046 C.ar    1  UNL1        0.0129
      7 C         144.5907  141.4138  163.4612 C.ar    1  UNL1        0.0578
      8 CL        146.0187  141.8241  163.2546 Cl      1  UNL1       -0.0822
      9 C         143.5062  142.0250  162.6244 C.ar    1  UNL1        0.0129
     10 C         142.0783  141.6147  162.8310 C.ar    1  UNL1        0.0181
     11 C         139.4744  139.4522  164.7307 C.ar    1  UNL1        0.0642
     12 C         138.7338  139.9835  165.9221 C.ar    1  UNL1        0.0198
     13 C         137.9590  139.0479  166.8021 C.ar    1  UNL1        0.0311
     14 C         137.9247  137.5810  166.4906 C.ar    1  UNL1        0.1402
     15 F         137.1499  136.6454  167.3705 F       1  UNL1       -0.2042
     16 C         138.6652  137.0497  165.2992 C.ar    1  UNL1        0.0311
     17 C         139.4400  137.9854  164.4193 C.ar    1  UNL1        0.0198
     18 N         140.4399  145.0625  158.8481 N.3     1  UNL1       -0.2672
     19 C         140.3998  143.5963  158.5340 C.3     1  UNL1        0.0986
     20 C         140.5214  142.5890  159.6388 C.2     1  UNL1       -0.0130
     21 C         140.6832  143.0479  161.0578 C.2     1  UNL1       -0.0222
     22 C         140.7233  144.5141  161.3718 C.3     1  UNL1        0.0434
     23 C         140.6016  145.5214  160.2670 C.3     1  UNL1        0.0771
     24 C         140.3182  146.0698  157.7434 C.3     1  UNL1        0.0942
     25 C         139.7938  145.6518  156.4016 C.3     1  UNL1        0.1123
     26 O         141.2353  144.8964  153.5731 O.2     1  UNL1       -0.2526
     27 C         140.6099  146.2152  153.9194 C.2     1  UNL1        0.3041
     28 N         140.5373  147.4182  153.0264 N.am    1  UNL1       -0.2870
     29 C         139.8299  148.5088  153.7746 C.3     1  UNL1        0.1124
     30 C         139.4653  147.9799  155.1300 C.3     1  UNL1        0.1162
     31 N         139.9473  146.5624  155.2195 N.am    1  UNL1       -0.2610
     32 H         140.8918  147.4809  152.1100 H       1  UNL1        0.1510
@<TRIPOS>BOND
     1    26    27    2
     2    27    28   am
     3    28    29    1
     4    29    30    1
     5    30    31    1
     6    31    25    1
     7    25    24    1
     8    24    18    1
     9    18    19    1
    10    19    20    1
    11    20    21    2
    12    21     1    1
    13     1     2   ar
    14     2     3   ar
    15     3    11    1
    16    11    12   ar
    17    12    13   ar
    18    13    14   ar
    19    14    15    1
    20    14    16   ar
    21    16    17   ar
    22     3     4   ar
    23     4     5   ar
    24     5     6   ar
    25     6     7   ar
    26     7     8    1
    27     7     9   ar
    28     9    10   ar
    29    21    22    1
    30    22    23    1
    31    31    27   am
    32    23    18    1
    33    10     1   ar
    34    17    11   ar
    35    10     4   ar
    36    28    32    1
@<TRIPOS>MOLECULE
*****
 32 36 0 0 0
SMALL
GASTEIGER

@<TRIPOS>ATOM
      1 C         141.6569  140.1088  163.8043 C.ar    1  UNL1        0.0148
      2 C         141.5636  139.0525  162.7434 C.ar    1  UNL1        0.0797
      3 N         141.4527  139.7390  161.4143 N.ar    1  UNL1       -0.3049
      4 C         141.4775  141.2195  161.6538 C.ar    1  UNL1        0.0641
      5 C         141.4014  142.3891  160.7177 C.ar    1  UNL1        0.0184
      6 C         141.4515  143.7872  161.2587 C.ar    1  UNL1        0.0129
      7 C         141.5777  144.0157  162.7358 C.ar    1  UNL1        0.0578
      8 CL        141.6279  145.4139  163.2768 Cl      1  UNL1       -0.0822
      9 C         141.6538  142.8462  163.6719 C.ar    1  UNL1        0.0129
     10 C         141.6037  141.4481  163.1309 C.ar    1  UNL1        0.0181
     11 C         141.3373  139.0635  160.0800 C.ar    1  UNL1        0.0642
     12 C         142.5478  138.4457  159.4449 C.ar    1  UNL1        0.0198
     13 C         142.4324  137.7703  158.1105 C.ar    1  UNL1        0.0311
     14 C         141.1066  137.7125  157.4113 C.ar    1  UNL1        0.1402
     15 F         140.9912  137.0371  156.0770 F       1  UNL1       -0.2042
     16 C         139.8962  138.3303  158.0464 C.ar    1  UNL1        0.0311
     17 C         140.0116  139.0057  159.3807 C.ar    1  UNL1        0.0198
     18 N         142.0309  139.3866  168.2302 N.3     1  UNL1       -0.2672
     19 C         143.1617  139.0253  167.3132 C.3     1  UNL1        0.0986
     20 C         143.0370  139.2660  165.8379 C.2     1  UNL1       -0.0130
     21 C         141.7816  139.8681  165.2796 C.2     1  UNL1       -0.0222
     22 C         140.6509  140.2293  166.1966 C.3     1  UNL1        0.0434
     23 C         140.7756  139.9886  167.6720 C.3     1  UNL1        0.0771
     24 C         142.1556  139.1459  169.7055 C.3     1  UNL1        0.0942
     25 C         142.5305  140.2739  170.6205 C.3     1  UNL1        0.1123
     26 O         143.8912  143.2076  170.1835 O.2     1  UNL1       -0.2526
     27 C         142.4251  142.9297  170.3368 C.2     1  UNL1        0.3041
     28 N         141.3271  143.9514  170.3161 N.am    1  UNL1       -0.2870
     29 C         140.0232  143.2345  170.5042 C.3     1  UNL1        0.1124
     30 C         140.3152  141.7696  170.6411 C.3     1  UNL1        0.1162
     31 N         141.7996  141.5812  170.5376 N.am    1  UNL1       -0.2610
     32 H         141.4422  144.9222  170.1996 H       1  UNL1        0.1510
@<TRIPOS>BOND
     1    26    27    2
     2    27    28   am
     3    28    29    1
     4    29    30    1
     5    30    31    1
     6    31    25    1
     7    25    24    1
     8    24    18    1
     9    18    19    1
    10    19    20    1
    11    20    21    2
    12    21     1    1
    13     1     2   ar
    14     2     3   ar
    15     3    11    1
    16    11    12   ar
    17    12    13   ar
    18    13    14   ar
    19    14    15    1
    20    14    16   ar
    21    16    17   ar
    22     3     4   ar
    23     4     5   ar
    24     5     6   ar
    25     6     7   ar
    26     7     8    1
    27     7     9   ar
    28     9    10   ar
    29    21    22    1
    30    22    23    1
    31    31    27   am
    32    23    18    1
    33    10     1   ar
    34    17    11   ar
    35    10     4   ar
    36    28    32    1
