@<TRIPOS>MOLECULE
*****
 29 32 0 0 0
SMALL
GASTEIGER

@<TRIPOS>ATOM
      1 N         141.2439  141.3821  164.5879 N.am    1  UNL1       -0.1350
      2 C         141.3912  142.6540  165.3691 C.2     1  UNL1        0.4244
      3 N         141.2651  143.9786  164.6765 N.2     1  UNL1        0.0251
      4 C         140.9916  144.0311  163.2026 C.2     1  UNL1        0.3719
      5 N         140.8177  145.1803  162.2544 N.2     1  UNL1       -0.0308
      6 C         140.5629  144.6186  160.8871 C.2     1  UNL1        0.2234
      7 BR        140.3321  145.4136  159.6363 Br      1  UNL1        0.0017
      8 C         140.5793  143.1222  160.9903 C.2     1  UNL1        0.0504
      9 C         140.8443  142.7591  162.4214 C.3     1  UNL1        0.2307
     10 C         140.9704  141.4346  163.1140 C.2     1  UNL1        0.3040
     11 O         140.8231  140.1627  162.3327 O.2     1  UNL1       -0.2554
     12 N         141.6647  142.6015  166.8432 N.pl3   1  UNL1       -0.1886
     13 C         143.0249  142.2103  167.3401 C.3     1  UNL1        0.1682
     14 C         143.2984  142.1577  168.8140 C.3     1  UNL1        0.0420
     15 C         142.2117  142.4964  169.7910 C.3     1  UNL1        0.0222
     16 C         140.8516  142.8876  169.2940 C.3     1  UNL1        0.0888
     17 N         139.7648  143.2263  170.2710 N.3     1  UNL1       -0.3196
     18 C         140.5781  142.9402  167.8201 C.3     1  UNL1        0.1834
     19 H         138.9138  143.4673  169.7629 H       1  UNL1        0.1189
     20 H         140.0561  144.0197  170.8420 H       1  UNL1        0.1189
     21 C         141.3701  140.0575  165.2805 C.3     1  UNL1        0.2035
     22 C         139.7055  138.0708  165.1007 C.ar    1  UNL1        0.0675
     23 C         138.4779  137.3570  165.5835 C.ar    1  UNL1        0.0101
     24 C         137.6870  137.9160  166.7290 C.ar    1  UNL1        0.0007
     25 C         138.1238  139.1888  167.3916 C.ar    1  UNL1       -0.0002
     26 C         139.3515  139.9027  166.9087 C.ar    1  UNL1       -0.0004
     27 C         140.1424  139.3437  165.7633 C.ar    1  UNL1        0.0251
     28 N         141.2874  136.9529  162.8099 N.1     1  UNL1       -0.1908
     29 C         140.4965  137.5119  163.9553 C.1     1  UNL1        0.1002
@<TRIPOS>BOND
     1    28    29    3
     2    29    22    1
     3    22    23   ar
     4    23    24   ar
     5    24    25   ar
     6    25    26   ar
     7    26    27   ar
     8    27    21    1
     9    21     1    1
    10     1     2    1
    11     2    12    1
    12    12    13    1
    13    13    14    1
    14    14    15    1
    15    15    16    1
    16    16    17    1
    17    16    18    1
    18     2     3    2
    19     3     4    1
    20     4     5    2
    21     5     6    1
    22     6     7    1
    23     6     8    2
    24     8     9    1
    25     9    10    1
    26    10    11    2
    27    27    22   ar
    28    10     1   am
    29    18    12    1
    30     9     4    1
    31    17    19    1
    32    17    20    1
@<TRIPOS>MOLECULE
*****
 29 32 0 0 0
SMALL
GASTEIGER

@<TRIPOS>ATOM
      1 N         139.2490  141.8833  159.8754 N.am    1  UNL1       -0.1350
      2 C         138.7100  140.4848  159.9327 C.2     1  UNL1        0.4244
      3 N         137.7771  139.9961  158.8645 N.2     1  UNL1        0.0251
      4 C         137.3833  140.9062  157.7390 C.2     1  UNL1        0.3719
      5 N         136.4882  140.7054  156.5522 N.2     1  UNL1       -0.0308
      6 C         136.4740  141.9799  155.7615 C.2     1  UNL1        0.2234
      7 BR        135.7080  142.2233  154.4950 Br      1  UNL1        0.0017
      8 C         137.3603  142.9685  156.4595 C.2     1  UNL1        0.0504
      9 C         137.9223  142.3048  157.6818 C.3     1  UNL1        0.2307
     10 C         138.8551  142.7934  158.7499 C.2     1  UNL1        0.3040
     11 O         139.3942  144.1921  158.6927 O.2     1  UNL1       -0.2554
     12 N         139.1039  139.5747  161.0582 N.pl3   1  UNL1       -0.1886
     13 C         138.1953  139.4064  162.2397 C.3     1  UNL1        0.1682
     14 C         138.5891  138.4963  163.3652 C.3     1  UNL1        0.0420
     15 C         139.8917  137.7546  163.3091 C.3     1  UNL1        0.0222
     16 C         140.8003  137.9229  162.1276 C.3     1  UNL1        0.0888
     17 N         142.1030  137.1811  162.0714 N.3     1  UNL1       -0.3196
     18 C         140.4065  138.8329  161.0021 C.3     1  UNL1        0.1834
     19 H         142.5887  137.4121  161.2048 H       1  UNL1        0.1189
     20 H         141.9243  136.1774  162.1039 H       1  UNL1        0.1189
     21 C         140.1819  142.3720  160.9436 C.3     1  UNL1        0.2035
     22 C         140.5472  144.0614  162.8833 C.ar    1  UNL1        0.0675
     23 C         140.0105  144.8328  164.0524 C.ar    1  UNL1        0.0101
     24 C         138.5718  144.6863  164.4509 C.ar    1  UNL1        0.0007
     25 C         137.6698  143.7684  163.6803 C.ar    1  UNL1       -0.0002
     26 C         138.2066  142.9969  162.5111 C.ar    1  UNL1       -0.0004
     27 C         139.6452  143.1434  162.1126 C.ar    1  UNL1        0.0251
     28 N         143.4245  144.3543  162.0863 N.1     1  UNL1       -0.1908
     29 C         141.9858  144.2079  162.4848 C.1     1  UNL1        0.1002
@<TRIPOS>BOND
     1    28    29    3
     2    29    22    1
     3    22    23   ar
     4    23    24   ar
     5    24    25   ar
     6    25    26   ar
     7    26    27   ar
     8    27    21    1
     9    21     1    1
    10     1     2    1
    11     2    12    1
    12    12    13    1
    13    13    14    1
    14    14    15    1
    15    15    16    1
    16    16    17    1
    17    16    18    1
    18     2     3    2
    19     3     4    1
    20     4     5    2
    21     5     6    1
    22     6     7    1
    23     6     8    2
    24     8     9    1
    25     9    10    1
    26    10    11    2
    27    27    22   ar
    28    10     1   am
    29    18    12    1
    30     9     4    1
    31    17    19    1
    32    17    20    1
@<TRIPOS>MOLECULE
*****
 29 32 0 0 0
SMALL
GASTEIGER

@<TRIPOS>ATOM
      1 N         141.2479  139.7962  162.6920 N.am    1  UNL1       -0.1350
      2 C         140.4055  140.7439  161.8907 C.2     1  UNL1        0.4244
      3 N         140.3881  140.6498  160.3937 N.2     1  UNL1        0.0251
      4 C         141.2132  139.6079  159.6981 C.2     1  UNL1        0.3719
      5 N         141.3963  139.2771  158.2466 N.2     1  UNL1       -0.0308
      6 C         142.3520  138.1249  158.1509 C.2     1  UNL1        0.2234
      7 BR        142.8183  137.4690  156.8850 Br      1  UNL1        0.0017
      8 C         142.7595  137.7437  159.5432 C.2     1  UNL1        0.0504
      9 C         142.0556  138.6603  160.4995 C.3     1  UNL1        0.2307
     10 C         142.0730  138.7544  161.9964 C.2     1  UNL1        0.3040
     11 O         142.9155  137.8067  162.7978 O.2     1  UNL1       -0.2554
     12 N         139.5804  141.7857  162.5863 N.pl3   1  UNL1       -0.1886
     13 C         138.1554  141.4929  162.9520 C.3     1  UNL1        0.1682
     14 C         137.3303  142.5347  163.6475 C.3     1  UNL1        0.0420
     15 C         137.9302  143.8694  163.9775 C.3     1  UNL1        0.0222
     16 C         139.3552  144.1622  163.6118 C.3     1  UNL1        0.0888
     17 N         139.9552  145.4969  163.9417 N.3     1  UNL1       -0.3196
     18 C         140.1803  143.1204  162.9162 C.3     1  UNL1        0.1834
     19 H         140.9240  145.5221  163.6237 H       1  UNL1        0.1189
     20 H         139.9246  145.6433  164.9507 H       1  UNL1        0.1189
     21 C         141.2653  139.8903  164.1890 C.3     1  UNL1        0.2035
     22 C         139.5161  140.0668  166.1018 C.ar    1  UNL1        0.0675
     23 C         138.4033  139.4607  166.9044 C.ar    1  UNL1        0.0101
     24 C         137.9269  138.0720  166.5968 C.ar    1  UNL1        0.0007
     25 C         138.5633  137.2894  165.4866 C.ar    1  UNL1       -0.0002
     26 C         139.6762  137.8956  164.6840 C.ar    1  UNL1       -0.0004
     27 C         140.1526  139.2843  164.9916 C.ar    1  UNL1        0.0251
     28 N         140.4689  142.8442  166.7169 N.1     1  UNL1       -0.1908
     29 C         139.9925  141.4555  166.4094 C.1     1  UNL1        0.1002
@<TRIPOS>BOND
     1    28    29    3
     2    29    22    1
     3    22    23   ar
     4    23    24   ar
     5    24    25   ar
     6    25    26   ar
     7    26    27   ar
     8    27    21    1
     9    21     1    1
    10     1     2    1
    11     2    12    1
    12    12    13    1
    13    13    14    1
    14    14    15    1
    15    15    16    1
    16    16    17    1
    17    16    18    1
    18     2     3    2
    19     3     4    1
    20     4     5    2
    21     5     6    1
    22     6     7    1
    23     6     8    2
    24     8     9    1
    25     9    10    1
    26    10    11    2
    27    27    22   ar
    28    10     1   am
    29    18    12    1
    30     9     4    1
    31    17    19    1
    32    17    20    1
@<TRIPOS>MOLECULE
*****
 29 32 0 0 0
SMALL
GASTEIGER

@<TRIPOS>ATOM
      1 N         140.5229  143.3265  160.1639 N.am    1  UNL1       -0.1350
      2 C         141.7565  144.1666  160.3128 C.2     1  UNL1        0.4244
      3 N         142.1268  145.1516  159.2438 N.2     1  UNL1        0.0251
      4 C         141.2632  145.2964  158.0259 C.2     1  UNL1        0.3719
      5 N         141.3736  146.1765  156.8162 N.2     1  UNL1       -0.0308
      6 C         140.2081  145.8802  155.9197 C.2     1  UNL1        0.2234
      7 BR        139.9233  146.5325  154.5993 Br      1  UNL1        0.0017
      8 C         139.3774  144.8171  156.5752 C.2     1  UNL1        0.0504
      9 C         140.0295  144.4563  157.8770 C.3     1  UNL1        0.2307
     10 C         139.6593  143.4714  158.9460 C.2     1  UNL1        0.3040
     11 O         138.4256  142.6312  158.7971 O.2     1  UNL1       -0.2554
     12 N         142.6201  144.0217  161.5308 N.pl3   1  UNL1       -0.1886
     13 C         142.3240  144.8282  162.7604 C.3     1  UNL1        0.1682
     14 C         143.1875  144.6834  163.9783 C.3     1  UNL1        0.0420
     15 C         144.3471  143.7320  163.9667 C.3     1  UNL1        0.0222
     16 C         144.6432  142.9255  162.7371 C.3     1  UNL1        0.0888
     17 N         145.8028  141.9740  162.7254 N.3     1  UNL1       -0.3196
     18 C         143.7797  143.0703  161.5192 C.3     1  UNL1        0.1834
     19 H         145.8556  141.5135  161.8169 H       1  UNL1        0.1189
     20 H         145.6748  141.2729  163.4551 H       1  UNL1        0.1189
     21 C         140.1526  142.3415  161.2330 C.3     1  UNL1        0.2035
     22 C         139.9487  142.3632  163.8229 C.ar    1  UNL1        0.0675
     23 C         139.2553  142.8323  165.0674 C.ar    1  UNL1        0.0101
     24 C         138.0721  143.7489  164.9666 C.ar    1  UNL1        0.0007
     25 C         137.5825  144.1964  163.6212 C.ar    1  UNL1       -0.0002
     26 C         138.2760  143.7272  162.3766 C.ar    1  UNL1       -0.0004
     27 C         139.4591  142.8106  162.4774 C.ar    1  UNL1        0.0251
     28 N         142.3149  140.5301  164.0245 N.1     1  UNL1       -0.1908
     29 C         141.1318  141.4466  163.9237 C.1     1  UNL1        0.1002
@<TRIPOS>BOND
     1    28    29    3
     2    29    22    1
     3    22    23   ar
     4    23    24   ar
     5    24    25   ar
     6    25    26   ar
     7    26    27   ar
     8    27    21    1
     9    21     1    1
    10     1     2    1
    11     2    12    1
    12    12    13    1
    13    13    14    1
    14    14    15    1
    15    15    16    1
    16    16    17    1
    17    16    18    1
    18     2     3    2
    19     3     4    1
    20     4     5    2
    21     5     6    1
    22     6     7    1
    23     6     8    2
    24     8     9    1
    25     9    10    1
    26    10    11    2
    27    27    22   ar
    28    10     1   am
    29    18    12    1
    30     9     4    1
    31    17    19    1
    32    17    20    1
@<TRIPOS>MOLECULE
*****
 29 32 0 0 0
SMALL
GASTEIGER

@<TRIPOS>ATOM
      1 N         141.5171  139.6656  160.5046 N.am    1  UNL1       -0.1350
      2 C         142.9863  139.9362  160.3697 C.2     1  UNL1        0.4244
      3 N         143.7368  139.4237  159.1763 N.2     1  UNL1        0.0251
      4 C         143.0180  138.6408  158.1178 C.2     1  UNL1        0.3719
      5 N         143.4895  138.0131  156.8396 N.2     1  UNL1       -0.0308
      6 C         142.3116  137.3547  156.1846 C.2     1  UNL1        0.2234
      7 BR        142.3299  136.6068  154.8845 Br      1  UNL1        0.0017
      8 C         141.1122  137.5754  157.0580 C.2     1  UNL1        0.0504
      9 C         141.5488  138.3703  158.2528 C.3     1  UNL1        0.2307
     10 C         140.7984  138.8827  159.4462 C.2     1  UNL1        0.3040
     11 O         139.3291  138.6122  159.5811 O.2     1  UNL1       -0.2554
     12 N         143.7051  140.7192  161.4282 N.pl3   1  UNL1       -0.1886
     13 C         144.4622  140.0027  162.5069 C.3     1  UNL1        0.1682
     14 C         145.1809  140.7856  163.5654 C.3     1  UNL1        0.0420
     15 C         145.1426  142.2850  163.5452 C.3     1  UNL1        0.0222
     16 C         144.3855  143.0014  162.4665 C.3     1  UNL1        0.0888
     17 N         144.3472  144.5009  162.4462 N.3     1  UNL1       -0.3196
     18 C         143.6668  142.2185  161.4080 C.3     1  UNL1        0.1834
     19 H         143.7922  144.8161  161.6506 H       1  UNL1        0.1189
     20 H         145.2967  144.8642  162.3637 H       1  UNL1        0.1189
     21 C         140.7666  140.1781  161.6981 C.3     1  UNL1        0.2035
     22 C         139.0810  139.3852  163.5092 C.ar    1  UNL1        0.0675
     23 C         138.7165  138.4503  164.6240 C.ar    1  UNL1        0.0101
     24 C         139.6730  137.3733  165.0428 C.ar    1  UNL1        0.0007
     25 C         140.9940  137.2313  164.3466 C.ar    1  UNL1       -0.0002
     26 C         141.3585  138.1663  163.2316 C.ar    1  UNL1       -0.0004
     27 C         140.4021  139.2432  162.8129 C.ar    1  UNL1        0.0251
     28 N         137.1681  141.5391  162.6717 N.1     1  UNL1       -0.1908
     29 C         138.1245  140.4621  163.0904 C.1     1  UNL1        0.1002
@<TRIPOS>BOND
     1    28    29    3
     2    29    22    1
     3    22    23   ar
     4    23    24   ar
     5    24    25   ar
     6    25    26   ar
     7    26    27   ar
     8    27    21    1
     9    21     1    1
    10     1     2    1
    11     2    12    1
    12    12    13    1
    13    13    14    1
    14    14    15    1
    15    15    16    1
    16    16    17    1
    17    16    18    1
    18     2     3    2
    19     3     4    1
    20     4     5    2
    21     5     6    1
    22     6     7    1
    23     6     8    2
    24     8     9    1
    25     9    10    1
    26    10    11    2
    27    27    22   ar
    28    10     1   am
    29    18    12    1
    30     9     4    1
    31    17    19    1
    32    17    20    1
@<TRIPOS>MOLECULE
*****
 29 32 0 0 0
SMALL
GASTEIGER

@<TRIPOS>ATOM
      1 N         141.2458  144.2800  161.2403 N.am    1  UNL1       -0.1350
      2 C         142.1632  143.2860  160.5923 C.2     1  UNL1        0.4244
      3 N         142.3649  143.3093  159.1060 N.2     1  UNL1        0.0251
      4 C         141.6492  144.3267  158.2679 C.2     1  UNL1        0.3719
      5 N         141.6505  144.5910  156.7914 N.2     1  UNL1       -0.0308
      6 C         140.7338  145.7485  156.5269 C.2     1  UNL1        0.2234
      7 BR        140.4371  146.3494  155.1850 Br      1  UNL1        0.0017
      8 C         140.1660  146.1996  157.8400 C.2     1  UNL1        0.0504
      9 C         140.7318  145.3209  158.9160 C.3     1  UNL1        0.2307
     10 C         140.5300  145.2975  160.4022 C.2     1  UNL1        0.3040
     11 O         139.6126  146.2917  161.0503 O.2     1  UNL1       -0.2554
     12 N         142.8789  142.2684  161.4305 N.pl3   1  UNL1       -0.1886
     13 C         142.2214  140.9567  161.7418 C.3     1  UNL1        0.1682
     14 C         142.9371  139.9392  162.5799 C.3     1  UNL1        0.0420
     15 C         144.3104  140.2335  163.1067 C.3     1  UNL1        0.0222
     16 C         144.9679  141.5452  162.7954 C.3     1  UNL1        0.0888
     17 N         146.3413  141.8396  163.3222 N.3     1  UNL1       -0.3196
     18 C         144.2522  142.5627  161.9572 C.3     1  UNL1        0.1834
     19 H         146.6309  142.7684  163.0161 H       1  UNL1        0.1189
     20 H         146.9978  141.1444  162.9671 H       1  UNL1        0.1189
     21 C         141.0440  144.2567  162.7265 C.3     1  UNL1        0.2035
     22 C         140.3679  142.5005  164.5178 C.ar    1  UNL1        0.0675
     23 C         139.3401  141.5897  165.1209 C.ar    1  UNL1        0.0101
     24 C         137.9602  141.5244  164.5361 C.ar    1  UNL1        0.0007
     25 C         137.6084  142.3699  163.3481 C.ar    1  UNL1       -0.0002
     26 C         138.6364  143.2807  162.7449 C.ar    1  UNL1       -0.0004
     27 C         140.0161  143.3460  163.3297 C.ar    1  UNL1        0.0251
     28 N         143.1274  142.6311  165.6873 N.1     1  UNL1       -0.1908
     29 C         141.7477  142.5658  165.1026 C.1     1  UNL1        0.1002
@<TRIPOS>BOND
     1    28    29    3
     2    29    22    1
     3    22    23   ar
     4    23    24   ar
     5    24    25   ar
     6    25    26   ar
     7    26    27   ar
     8    27    21    1
     9    21     1    1
    10     1     2    1
    11     2    12    1
    12    12    13    1
    13    13    14    1
    14    14    15    1
    15    15    16    1
    16    16    17    1
    17    16    18    1
    18     2     3    2
    19     3     4    1
    20     4     5    2
    21     5     6    1
    22     6     7    1
    23     6     8    2
    24     8     9    1
    25     9    10    1
    26    10    11    2
    27    27    22   ar
    28    10     1   am
    29    18    12    1
    30     9     4    1
    31    17    19    1
    32    17    20    1
@<TRIPOS>MOLECULE
*****
 29 32 0 0 0
SMALL
GASTEIGER

@<TRIPOS>ATOM
      1 N         141.2707  140.9579  164.6682 N.am    1  UNL1       -0.1350
      2 C         140.5972  142.1613  165.2582 C.2     1  UNL1        0.4244
      3 N         140.6787  142.4183  166.7339 N.2     1  UNL1        0.0251
      4 C         141.4337  141.4718  167.6194 C.2     1  UNL1        0.3719
      5 N         141.6848  141.4652  169.0982 N.2     1  UNL1       -0.0308
      6 C         142.5135  140.2575  169.4221 C.2     1  UNL1        0.2234
      7 BR        142.9964  139.8594  170.7853 Br      1  UNL1        0.0017
      8 C         142.7745  139.5179  168.1435 C.2     1  UNL1        0.0504
      9 C         142.1071  140.2684  167.0293 C.3     1  UNL1        0.2307
     10 C         142.0256  140.0114  165.5538 C.2     1  UNL1        0.3040
     11 O         142.6991  138.8079  164.9637 O.2     1  UNL1       -0.2554
     12 N         139.8423  143.1079  164.3726 N.pl3   1  UNL1       -0.1886
     13 C         138.3908  142.8662  164.0813 C.3     1  UNL1        0.1682
     14 C         137.6358  143.8126  163.1958 C.3     1  UNL1        0.0420
     15 C         138.3323  145.0008  162.6016 C.3     1  UNL1        0.0222
     16 C         139.7838  145.2425  162.8929 C.3     1  UNL1        0.0888
     17 N         140.4804  146.4307  162.2987 N.3     1  UNL1       -0.3196
     18 C         140.5388  144.2960  163.7784 C.3     1  UNL1        0.1834
     19 H         141.4549  146.4391  162.5996 H       1  UNL1        0.1189
     20 H         140.0206  147.2859  162.6113 H       1  UNL1        0.1189
     21 C         141.1892  140.7009  163.1926 C.3     1  UNL1        0.2035
     22 C         139.3050  140.4278  161.4248 C.ar    1  UNL1        0.0675
     23 C         138.1552  139.6462  160.8620 C.ar    1  UNL1        0.0101
     24 C         137.7397  138.3557  161.5042 C.ar    1  UNL1        0.0007
     25 C         138.4740  137.8471  162.7092 C.ar    1  UNL1       -0.0002
     26 C         139.6239  138.6289  163.2719 C.ar    1  UNL1       -0.0004
     27 C         140.0394  139.9192  162.6298 C.ar    1  UNL1        0.0251
     28 N         140.1360  143.0085  160.1405 N.1     1  UNL1       -0.1908
     29 C         139.7205  141.7182  160.7827 C.1     1  UNL1        0.1002
@<TRIPOS>BOND
     1    28    29    3
     2    29    22    1
     3    22    23   ar
     4    23    24   ar
     5    24    25   ar
     6    25    26   ar
     7    26    27   ar
     8    27    21    1
     9    21     1    1
    10     1     2    1
    11     2    12    1
    12    12    13    1
    13    13    14    1
    14    14    15    1
    15    15    16    1
    16    16    17    1
    17    16    18    1
    18     2     3    2
    19     3     4    1
    20     4     5    2
    21     5     6    1
    22     6     7    1
    23     6     8    2
    24     8     9    1
    25     9    10    1
    26    10    11    2
    27    27    22   ar
    28    10     1   am
    29    18    12    1
    30     9     4    1
    31    17    19    1
    32    17    20    1
@<TRIPOS>MOLECULE
*****
 29 32 0 0 0
SMALL
GASTEIGER

@<TRIPOS>ATOM
      1 N         140.5307  140.2282  161.8341 N.am    1  UNL1       -0.1350
      2 C         141.1775  141.5778  161.7348 C.2     1  UNL1        0.4244
      3 N         140.7687  142.5274  160.6479 N.2     1  UNL1        0.0251
      4 C         139.7131  142.1271  159.6603 C.2     1  UNL1        0.3719
      5 N         139.1088  142.8458  158.4905 N.2     1  UNL1       -0.0308
      6 C         138.0886  141.9402  157.8668 C.2     1  UNL1        0.2234
      7 BR        137.2431  142.2572  156.6691 Br      1  UNL1        0.0017
      8 C         138.0623  140.6618  158.6511 C.2     1  UNL1        0.0504
      9 C         139.0663  140.7773  159.7596 C.3     1  UNL1        0.2307
     10 C         139.4751  139.8279  160.8465 C.2     1  UNL1        0.3040
     11 O         138.8283  138.4781  160.9457 O.2     1  UNL1       -0.2554
     12 N         142.2332  141.9781  162.7225 N.pl3   1  UNL1       -0.1886
     13 C         141.8446  142.6614  164.0001 C.3     1  UNL1        0.1682
     14 C         142.9002  143.0617  164.9877 C.3     1  UNL1        0.0420
     15 C         144.3444  142.7787  164.6978 C.3     1  UNL1        0.0222
     16 C         144.7330  142.0954  163.4202 C.3     1  UNL1        0.0888
     17 N         146.1773  141.8124  163.1302 N.3     1  UNL1       -0.3196
     18 C         143.6774  141.6951  162.4326 C.3     1  UNL1        0.1834
     19 H         146.2578  141.3472  162.2261 H       1  UNL1        0.1189
     20 H         146.5583  141.2083  163.8585 H       1  UNL1        0.1189
     21 C         140.9396  139.2786  162.9210 C.3     1  UNL1        0.2035
     22 C         141.2071  139.3764  165.5034 C.ar    1  UNL1        0.0675
     23 C         140.5976  139.4923  166.8690 C.ar    1  UNL1        0.0101
     24 C         139.1109  139.6263  167.0179 C.ar    1  UNL1        0.0007
     25 C         138.2339  139.6445  165.8012 C.ar    1  UNL1       -0.0002
     26 C         138.8435  139.5286  164.4355 C.ar    1  UNL1       -0.0004
     27 C         140.3301  139.3945  164.2866 C.ar    1  UNL1        0.0251
     28 N         144.1802  139.1083  165.2056 N.1     1  UNL1       -0.1908
     29 C         142.6936  139.2423  165.3545 C.1     1  UNL1        0.1002
@<TRIPOS>BOND
     1    28    29    3
     2    29    22    1
     3    22    23   ar
     4    23    24   ar
     5    24    25   ar
     6    25    26   ar
     7    26    27   ar
     8    27    21    1
     9    21     1    1
    10     1     2    1
    11     2    12    1
    12    12    13    1
    13    13    14    1
    14    14    15    1
    15    15    16    1
    16    16    17    1
    17    16    18    1
    18     2     3    2
    19     3     4    1
    20     4     5    2
    21     5     6    1
    22     6     7    1
    23     6     8    2
    24     8     9    1
    25     9    10    1
    26    10    11    2
    27    27    22   ar
    28    10     1   am
    29    18    12    1
    30     9     4    1
    31    17    19    1
    32    17    20    1
@<TRIPOS>MOLECULE
*****
 29 32 0 0 0
SMALL
GASTEIGER

@<TRIPOS>ATOM
      1 N         139.3252  141.3273  164.7246 N.am    1  UNL1       -0.1350
      2 C         140.0939  142.6068  164.8722 C.2     1  UNL1        0.4244
      3 N         140.6812  142.9800  166.2011 N.2     1  UNL1        0.0251
      4 C         140.4995  142.0736  167.3824 C.2     1  UNL1        0.3719
      5 N         140.9598  142.1763  168.8063 N.2     1  UNL1       -0.0308
      6 C         140.4755  140.9602  169.5388 C.2     1  UNL1        0.2234
      7 BR        140.7096  140.6523  170.9881 Br      1  UNL1        0.0017
      8 C         139.7158  140.1059  168.5675 C.2     1  UNL1        0.0504
      9 C         139.7307  140.7941  167.2348 C.3     1  UNL1        0.2307
     10 C         139.1435  140.4210  165.9059 C.2     1  UNL1        0.3040
     11 O         138.3747  139.1415  165.7583 O.2     1  UNL1       -0.2554
     12 N         140.2756  143.5132  163.6908 N.pl3   1  UNL1       -0.1886
     13 C         139.2840  144.6069  163.4252 C.3     1  UNL1        0.1682
     14 C         139.4656  145.5133  162.2439 C.3     1  UNL1        0.0420
     15 C         140.6388  145.3259  161.3282 C.3     1  UNL1        0.0222
     16 C         141.6303  144.2322  161.5938 C.3     1  UNL1        0.0888
     17 N         142.8036  144.0448  160.6781 N.3     1  UNL1       -0.3196
     18 C         141.4487  143.3258  162.7751 C.3     1  UNL1        0.1834
     19 H         143.3693  143.2620  161.0061 H       1  UNL1        0.1189
     20 H         143.3690  144.8937  160.6717 H       1  UNL1        0.1189
     21 C         138.7379  140.9541  163.3957 C.3     1  UNL1        0.2035
     22 C         139.6297  140.5348  160.9918 C.ar    1  UNL1        0.0675
     23 C         140.4239  139.7049  160.0273 C.ar    1  UNL1        0.0101
     24 C         141.1207  138.4642  160.5022 C.ar    1  UNL1        0.0007
     25 C         141.0232  138.0536  161.9416 C.ar    1  UNL1       -0.0002
     26 C         140.2289  138.8836  162.9061 C.ar    1  UNL1       -0.0004
     27 C         139.5321  140.1242  162.4312 C.ar    1  UNL1        0.0251
     28 N         138.2362  143.0159  160.0420 N.1     1  UNL1       -0.1908
     29 C         138.9329  141.7754  160.5169 C.1     1  UNL1        0.1002
@<TRIPOS>BOND
     1    28    29    3
     2    29    22    1
     3    22    23   ar
     4    23    24   ar
     5    24    25   ar
     6    25    26   ar
     7    26    27   ar
     8    27    21    1
     9    21     1    1
    10     1     2    1
    11     2    12    1
    12    12    13    1
    13    13    14    1
    14    14    15    1
    15    15    16    1
    16    16    17    1
    17    16    18    1
    18     2     3    2
    19     3     4    1
    20     4     5    2
    21     5     6    1
    22     6     7    1
    23     6     8    2
    24     8     9    1
    25     9    10    1
    26    10    11    2
    27    27    22   ar
    28    10     1   am
    29    18    12    1
    30     9     4    1
    31    17    19    1
    32    17    20    1
