@<TRIPOS>MOLECULE
*****
 48 53 0 0 0
SMALL
GASTEIGER

@<TRIPOS>ATOM
      1 N         138.2317  139.7451  162.2383 N.am    1  UNL1       -0.2681
      2 C         138.9140  140.5874  161.2015 C.2     1  UNL1        0.3082
      3 O         139.9497  141.5913  161.6135 O.2     1  UNL1       -0.2522
      4 N         138.5607  140.4258  159.7527 N.am    1  UNL1       -0.2681
      5 H         137.5520  139.0863  161.9679 H       1  UNL1        0.1564
      6 H         137.8809  139.7670  159.4823 H       1  UNL1        0.1564
      7 C         139.2917  140.2297  166.5848 C.ar    1  UNL1        0.0537
      8 C         139.1901  138.8582  165.9860 C.ar    1  UNL1        0.0058
      9 C         138.8367  138.6967  164.5372 C.ar    1  UNL1        0.0149
     10 C         138.5851  139.9067  163.6872 C.ar    1  UNL1        0.0516
     11 C         138.6867  141.2782  164.2860 C.ar    1  UNL1        0.0149
     12 C         139.0401  141.4397  165.7348 C.ar    1  UNL1        0.0058
     13 C         141.4269  141.2694  169.8221 C.3     1  UNL1        0.1518
     14 C         142.7640  141.9447  169.7437 C.3     1  UNL1        0.0310
     15 C         143.1040  142.1328  168.2948 C.3     1  UNL1        0.0237
     16 C         141.9770  141.5738  167.4779 C.3     1  UNL1        0.0942
     17 N         140.9405  141.0401  168.4219 N.am    1  UNL1       -0.2695
     18 C         139.6451  140.3912  168.0336 C.2     1  UNL1        0.2493
     19 O         138.7029  139.9038  169.0942 O.2     1  UNL1       -0.2699
     20 N         140.3015  139.4636  171.3132 N.am    1  UNL1       -0.3275
     21 C         140.7033  140.8899  171.0801 C.2     1  UNL1        0.2375
     22 O         140.3814  141.9368  172.1050 O.2     1  UNL1       -0.2736
     23 H         139.8266  139.2147  172.1388 H       1  UNL1        0.1450
     24 H         140.5127  138.7765  170.6405 H       1  UNL1        0.1450
     25 C         139.2430  141.2681  158.7159 C.ar    1  UNL1        0.0516
     26 C         138.7048  142.6276  158.3811 C.ar    1  UNL1        0.0148
     27 C         139.3871  143.4699  157.3443 C.ar    1  UNL1        0.0043
     28 C         140.6076  142.9527  156.6422 C.ar    1  UNL1        0.0361
     29 C         141.1458  141.5932  156.9770 C.ar    1  UNL1        0.0043
     30 C         140.4634  140.7509  158.0138 C.ar    1  UNL1        0.0148
     31 C         141.2899  143.7950  155.6054 C.ar    1  UNL1        0.1680
     32 N         142.5671  143.3221  154.9767 N.ar    1  UNL1       -0.1944
     33 C         143.2493  144.1644  153.9399 C.ar    1  UNL1        0.2240
     34 N         142.6545  145.4796  153.5317 N.ar    1  UNL1       -0.1807
     35 C         141.3773  145.9524  154.1605 C.ar    1  UNL1        0.2240
     36 N         140.6950  145.1101  155.1973 N.ar    1  UNL1       -0.1944
     37 N         144.5265  143.6916  153.3111 N.pl3   1  UNL1       -0.2729
     38 C         144.5854  142.3440  152.6549 C.3     1  UNL1        0.1257
     39 C         145.8626  141.8712  152.0262 C.3     1  UNL1        0.1637
     40 O         147.0808  142.7459  152.0537 O.3     1  UNL1       -0.3501
     41 C         147.0219  144.0935  152.7099 C.3     1  UNL1        0.1637
     42 C         145.7448  144.5663  153.3387 C.3     1  UNL1        0.1257
     43 N         140.7825  147.2675  153.7524 N.pl3   1  UNL1       -0.2729
     44 C         141.0339  147.8098  152.3766 C.3     1  UNL1        0.1257
     45 C         140.4390  149.1249  151.9685 C.3     1  UNL1        0.1637
     46 O         139.5927  149.8978  152.9362 O.3     1  UNL1       -0.3501
     47 C         139.3412  149.3556  154.3119 C.3     1  UNL1        0.1637
     48 C         139.9361  148.0404  154.7200 C.3     1  UNL1        0.1257
@<TRIPOS>BOND
     1    20    21   am
     2    21    22    2
     3    13    21    1
     4    13    14    1
     5    14    15    1
     6    15    16    1
     7    16    17    1
     8    17    18   am
     9    18    19    2
    10    18     7    1
    11     7     8   ar
    12     8     9   ar
    13     9    10   ar
    14    10     1    1
    15     1     2   am
    16     2     3    2
    17     2     4   am
    18     4    25    1
    19    25    26   ar
    20    26    27   ar
    21    27    28   ar
    22    28    31    1
    23    31    32   ar
    24    32    33   ar
    25    33    37    1
    26    37    38    1
    27    38    39    1
    28    39    40    1
    29    40    41    1
    30    41    42    1
    31    33    34   ar
    32    34    35   ar
    33    35    43    1
    34    43    44    1
    35    44    45    1
    36    45    46    1
    37    46    47    1
    38    47    48    1
    39    35    36   ar
    40    28    29   ar
    41    29    30   ar
    42    10    11   ar
    43    11    12   ar
    44    17    13    1
    45    12     7   ar
    46    30    25   ar
    47    36    31   ar
    48    42    37    1
    49    48    43    1
    50    20    23    1
    51    20    24    1
    52     1     5    1
    53     4     6    1
@<TRIPOS>MOLECULE
*****
 48 53 0 0 0
SMALL
GASTEIGER

@<TRIPOS>ATOM
      1 N         143.2793  139.5227  155.7248 N.am    1  UNL1       -0.2681
      2 C         143.0616  138.0605  155.9790 C.2     1  UNL1        0.3082
      3 O         142.3412  137.6134  157.2163 O.2     1  UNL1       -0.2522
      4 N         143.5644  137.0453  154.9957 N.am    1  UNL1       -0.2681
      5 H         143.7521  139.8161  154.9127 H       1  UNL1        0.1564
      6 H         144.0372  137.3388  154.1835 H       1  UNL1        0.1564
      7 C         141.7712  142.5680  158.6747 C.ar    1  UNL1        0.0537
      8 C         143.0013  141.7679  158.9855 C.ar    1  UNL1        0.0058
      9 C         143.5040  140.7528  158.0022 C.ar    1  UNL1        0.0149
     10 C         142.7765  140.5378  156.7081 C.ar    1  UNL1        0.0516
     11 C         141.5464  141.3379  156.3973 C.ar    1  UNL1        0.0149
     12 C         141.0438  142.3530  157.3806 C.ar    1  UNL1        0.0058
     13 C         139.5180  144.1511  161.5965 C.3     1  UNL1        0.1518
     14 C         138.4065  143.4055  162.2738 C.3     1  UNL1        0.0310
     15 C         138.3270  142.0373  161.6639 C.3     1  UNL1        0.0237
     16 C         139.3895  141.9374  160.6098 C.3     1  UNL1        0.0942
     17 N         140.1255  143.2437  160.5682 N.am    1  UNL1       -0.2695
     18 C         141.2685  143.5831  159.6580 C.2     1  UNL1        0.2493
     19 O         141.9087  144.9377  159.7310 O.2     1  UNL1       -0.2699
     20 N         141.0998  145.8091  162.8210 N.am    1  UNL1       -0.3275
     21 C         139.9467  145.5571  161.8953 C.2     1  UNL1        0.2375
     22 O         139.2222  146.7113  161.2683 O.2     1  UNL1       -0.2736
     23 H         141.3811  146.7320  163.0170 H       1  UNL1        0.1450
     24 H         141.5753  145.0516  163.2325 H       1  UNL1        0.1450
     25 C         143.3467  135.5832  155.2498 C.ar    1  UNL1        0.0516
     26 C         142.6114  134.7484  154.2436 C.ar    1  UNL1        0.0148
     27 C         142.3937  133.2862  154.4977 C.ar    1  UNL1        0.0043
     28 C         142.9113  132.6587  155.7581 C.ar    1  UNL1        0.0361
     29 C         143.6466  133.4936  156.7643 C.ar    1  UNL1        0.0043
     30 C         143.8643  134.9558  156.5101 C.ar    1  UNL1        0.0148
     31 C         142.6937  131.1966  156.0122 C.ar    1  UNL1        0.1680
     32 N         143.5275  130.4804  157.0329 N.ar    1  UNL1       -0.1944
     33 C         143.3098  129.0183  157.2870 C.ar    1  UNL1        0.2240
     34 N         142.2583  128.2721  156.5204 N.ar    1  UNL1       -0.1807
     35 C         141.4244  128.9883  155.4997 C.ar    1  UNL1        0.2240
     36 N         141.6422  130.4505  155.2456 N.ar    1  UNL1       -0.1944
     37 N         144.1437  128.3021  158.3077 N.pl3   1  UNL1       -0.2729
     38 C         145.3261  127.4880  157.8728 C.3     1  UNL1        0.1257
     39 C         146.1599  126.7719  158.8935 C.3     1  UNL1        0.1637
     40 O         145.8113  126.8698  160.3491 O.3     1  UNL1       -0.3501
     41 C         144.6289  127.6839  160.7841 C.3     1  UNL1        0.1637
     42 C         143.7950  128.4001  159.7634 C.3     1  UNL1        0.1257
     43 N         140.3729  128.2423  154.7331 N.pl3   1  UNL1       -0.2729
     44 C         140.2352  128.4485  153.2536 C.3     1  UNL1        0.1257
     45 C         139.1837  127.7025  152.4870 C.3     1  UNL1        0.1637
     46 O         138.2699  126.7502  153.1998 O.3     1  UNL1       -0.3501
     47 C         138.4075  126.5439  154.6791 C.3     1  UNL1        0.1637
     48 C         139.4591  127.2900  155.4458 C.3     1  UNL1        0.1257
@<TRIPOS>BOND
     1    20    21   am
     2    21    22    2
     3    13    21    1
     4    13    14    1
     5    14    15    1
     6    15    16    1
     7    16    17    1
     8    17    18   am
     9    18    19    2
    10    18     7    1
    11     7     8   ar
    12     8     9   ar
    13     9    10   ar
    14    10     1    1
    15     1     2   am
    16     2     3    2
    17     2     4   am
    18     4    25    1
    19    25    26   ar
    20    26    27   ar
    21    27    28   ar
    22    28    31    1
    23    31    32   ar
    24    32    33   ar
    25    33    37    1
    26    37    38    1
    27    38    39    1
    28    39    40    1
    29    40    41    1
    30    41    42    1
    31    33    34   ar
    32    34    35   ar
    33    35    43    1
    34    43    44    1
    35    44    45    1
    36    45    46    1
    37    46    47    1
    38    47    48    1
    39    35    36   ar
    40    28    29   ar
    41    29    30   ar
    42    10    11   ar
    43    11    12   ar
    44    17    13    1
    45    12     7   ar
    46    30    25   ar
    47    36    31   ar
    48    42    37    1
    49    48    43    1
    50    20    23    1
    51    20    24    1
    52     1     5    1
    53     4     6    1
@<TRIPOS>MOLECULE
*****
 48 53 0 0 0
SMALL
GASTEIGER

@<TRIPOS>ATOM
      1 N         138.3313  139.5724  162.3189 N.am    1  UNL1       -0.2681
      2 C         138.9912  140.4230  161.2745 C.2     1  UNL1        0.3082
      3 O         139.9828  141.4732  161.6793 O.2     1  UNL1       -0.2522
      4 N         138.6596  140.2234  159.8253 N.am    1  UNL1       -0.2681
      5 H         137.6805  138.8831  162.0532 H       1  UNL1        0.1564
      6 H         138.0089  139.5341  159.5596 H       1  UNL1        0.1564
      7 C         139.3260  140.1712  166.6666 C.ar    1  UNL1        0.0537
      8 C         139.1528  141.3584  165.7664 C.ar    1  UNL1        0.0058
      9 C         138.8212  141.1588  164.3172 C.ar    1  UNL1        0.0149
     10 C         138.6628  139.7719  163.7682 C.ar    1  UNL1        0.0516
     11 C         138.8360  138.5846  164.6683 C.ar    1  UNL1        0.0149
     12 C         139.1676  138.7843  166.1175 C.ar    1  UNL1        0.0058
     13 C         141.4325  141.2545  169.9083 C.3     1  UNL1        0.1518
     14 C         142.7910  141.8862  169.8334 C.3     1  UNL1        0.0310
     15 C         143.1630  142.0150  168.3860 C.3     1  UNL1        0.0237
     16 C         142.0345  141.4630  167.5664 C.3     1  UNL1        0.0942
     17 N         140.9650  140.9930  168.5073 N.am    1  UNL1       -0.2695
     18 C         139.6575  140.3707  168.1158 C.2     1  UNL1        0.2493
     19 O         138.6816  139.9480  169.1736 O.2     1  UNL1       -0.2699
     20 N         140.2287  139.5340  171.4384 N.am    1  UNL1       -0.3275
     21 C         140.6747  140.9397  171.1639 C.2     1  UNL1        0.2375
     22 O         140.3627  142.0305  172.1451 O.2     1  UNL1       -0.2736
     23 H         139.7313  139.3275  172.2626 H       1  UNL1        0.1450
     24 H         140.4335  138.8180  170.7945 H       1  UNL1        0.1450
     25 C         139.3196  141.0741  158.7809 C.ar    1  UNL1        0.0516
     26 C         138.7143  142.3908  158.3936 C.ar    1  UNL1        0.0148
     27 C         139.3743  143.2414  157.3492 C.ar    1  UNL1        0.0043
     28 C         140.6396  142.7754  156.6920 C.ar    1  UNL1        0.0361
     29 C         141.2448  141.4587  157.0792 C.ar    1  UNL1        0.0043
     30 C         140.5848  140.6080  158.1237 C.ar    1  UNL1        0.0148
     31 C         141.2995  143.6260  155.6476 C.ar    1  UNL1        0.1680
     32 N         140.6956  144.9439  155.2622 N.ar    1  UNL1       -0.1944
     33 C         141.3556  145.7945  154.2178 C.ar    1  UNL1        0.2240
     34 N         142.6195  145.3273  153.5587 N.ar    1  UNL1       -0.1807
     35 C         143.2234  144.0094  153.9441 C.ar    1  UNL1        0.2240
     36 N         142.5633  143.1588  154.9885 N.ar    1  UNL1       -0.1944
     37 N         140.7517  147.1124  153.8325 N.pl3   1  UNL1       -0.2729
     38 C         141.0309  147.6986  152.4803 C.3     1  UNL1        0.1257
     39 C         140.4270  149.0165  152.0949 C.3     1  UNL1        0.1637
     40 O         139.5440  149.7482  153.0618 O.3     1  UNL1       -0.3501
     41 C         139.2648  149.1621  154.4140 C.3     1  UNL1        0.1637
     42 C         139.8687  147.8442  154.7994 C.3     1  UNL1        0.1257
     43 N         144.4872  143.5422  153.2850 N.pl3   1  UNL1       -0.2729
     44 C         144.6966  142.0815  153.0152 C.3     1  UNL1        0.1257
     45 C         145.9604  141.6143  152.3561 C.3     1  UNL1        0.1637
     46 O         147.0149  142.6076  151.9669 O.3     1  UNL1       -0.3501
     47 C         146.8055  144.0682  152.2367 C.3     1  UNL1        0.1637
     48 C         145.5416  144.5355  152.8958 C.3     1  UNL1        0.1257
@<TRIPOS>BOND
     1    20    21   am
     2    21    22    2
     3    13    21    1
     4    13    14    1
     5    14    15    1
     6    15    16    1
     7    16    17    1
     8    17    18   am
     9    18    19    2
    10    18     7    1
    11     7     8   ar
    12     8     9   ar
    13     9    10   ar
    14    10     1    1
    15     1     2   am
    16     2     3    2
    17     2     4   am
    18     4    25    1
    19    25    26   ar
    20    26    27   ar
    21    27    28   ar
    22    28    31    1
    23    31    32   ar
    24    32    33   ar
    25    33    37    1
    26    37    38    1
    27    38    39    1
    28    39    40    1
    29    40    41    1
    30    41    42    1
    31    33    34   ar
    32    34    35   ar
    33    35    43    1
    34    43    44    1
    35    44    45    1
    36    45    46    1
    37    46    47    1
    38    47    48    1
    39    35    36   ar
    40    28    29   ar
    41    29    30   ar
    42    10    11   ar
    43    11    12   ar
    44    17    13    1
    45    12     7   ar
    46    30    25   ar
    47    36    31   ar
    48    42    37    1
    49    48    43    1
    50    20    23    1
    51    20    24    1
    52     1     5    1
    53     4     6    1
@<TRIPOS>MOLECULE
*****
 48 53 0 0 0
SMALL
GASTEIGER

@<TRIPOS>ATOM
      1 N         143.0451  139.4876  155.5287 N.am    1  UNL1       -0.2681
      2 C         142.8574  138.0256  155.8065 C.2     1  UNL1        0.3082
      3 O         142.2224  137.5817  157.0909 O.2     1  UNL1       -0.2522
      4 N         143.3047  137.0073  154.7999 N.am    1  UNL1       -0.2681
      5 H         143.4619  139.7789  154.6857 H       1  UNL1        0.1564
      6 H         143.7215  137.2987  153.9569 H       1  UNL1        0.1564
      7 C         141.7032  142.5421  158.5485 C.ar    1  UNL1        0.0537
      8 C         142.9052  141.6892  158.8277 C.ar    1  UNL1        0.0058
      9 C         143.3524  140.6711  157.8211 C.ar    1  UNL1        0.0149
     10 C         142.5978  140.5058  156.5353 C.ar    1  UNL1        0.0516
     11 C         141.3958  141.3586  156.2562 C.ar    1  UNL1        0.0149
     12 C         140.9486  142.3768  157.2628 C.ar    1  UNL1        0.0058
     13 C         139.5655  144.1614  161.5366 C.3     1  UNL1        0.1518
     14 C         138.4426  143.4453  162.2267 C.3     1  UNL1        0.0310
     15 C         138.3035  142.0892  161.6008 C.3     1  UNL1        0.0237
     16 C         139.3405  141.9672  160.5238 C.3     1  UNL1        0.0942
     17 N         140.1204  143.2479  160.4841 N.am    1  UNL1       -0.2695
     18 C         141.2559  143.5603  159.5552 C.2     1  UNL1        0.2493
     19 O         141.9441  144.8908  159.6327 O.2     1  UNL1       -0.2699
     20 N         141.2325  145.7466  162.7443 N.am    1  UNL1       -0.3275
     21 C         140.0487  145.5476  161.8448 C.2     1  UNL1        0.2375
     22 O         139.3480  146.7348  161.2535 O.2     1  UNL1       -0.2736
     23 H         141.5495  146.6565  162.9466 H       1  UNL1        0.1450
     24 H         141.6923  144.9674  163.1325 H       1  UNL1        0.1450
     25 C         143.1171  135.5453  155.0777 C.ar    1  UNL1        0.0516
     26 C         142.1089  134.7567  154.2956 C.ar    1  UNL1        0.0148
     27 C         141.9213  133.2946  154.5734 C.ar    1  UNL1        0.0043
     28 C         142.7417  132.6212  155.6333 C.ar    1  UNL1        0.0361
     29 C         143.7498  133.4099  156.4155 C.ar    1  UNL1        0.0043
     30 C         143.9375  134.8720  156.1376 C.ar    1  UNL1        0.0148
     31 C         142.5540  131.1592  155.9112 C.ar    1  UNL1        0.1680
     32 N         141.5103  130.3819  155.1651 N.ar    1  UNL1       -0.1944
     33 C         141.3226  128.9199  155.4429 C.ar    1  UNL1        0.2240
     34 N         142.1786  128.2351  156.4668 N.ar    1  UNL1       -0.1807
     35 C         143.2223  129.0123  157.2129 C.ar    1  UNL1        0.2240
     36 N         143.4100  130.4744  156.9350 N.ar    1  UNL1       -0.1944
     37 N         140.2789  128.1427  154.6969 N.pl3   1  UNL1       -0.2729
     38 C         139.2710  127.3260  155.4498 C.3     1  UNL1        0.1257
     39 C         138.2273  126.5487  154.7038 C.3     1  UNL1        0.1637
     40 O         138.1916  126.5881  153.2048 O.3     1  UNL1       -0.3501
     41 C         139.1996  127.4048  152.4517 C.3     1  UNL1        0.1637
     42 C         140.2433  128.1821  153.1977 C.3     1  UNL1        0.1257
     43 N         144.0783  128.3276  158.2367 N.pl3   1  UNL1       -0.2729
     44 C         145.2693  127.5253  157.8032 C.3     1  UNL1        0.1257
     45 C         146.1253  126.8405  158.8271 C.3     1  UNL1        0.1637
     46 O         145.7904  126.9580  160.2845 O.3     1  UNL1       -0.3501
     47 C         144.5994  127.7603  160.7180 C.3     1  UNL1        0.1637
     48 C         143.7434  128.4451  159.6941 C.3     1  UNL1        0.1257
@<TRIPOS>BOND
     1    20    21   am
     2    21    22    2
     3    13    21    1
     4    13    14    1
     5    14    15    1
     6    15    16    1
     7    16    17    1
     8    17    18   am
     9    18    19    2
    10    18     7    1
    11     7     8   ar
    12     8     9   ar
    13     9    10   ar
    14    10     1    1
    15     1     2   am
    16     2     3    2
    17     2     4   am
    18     4    25    1
    19    25    26   ar
    20    26    27   ar
    21    27    28   ar
    22    28    31    1
    23    31    32   ar
    24    32    33   ar
    25    33    37    1
    26    37    38    1
    27    38    39    1
    28    39    40    1
    29    40    41    1
    30    41    42    1
    31    33    34   ar
    32    34    35   ar
    33    35    43    1
    34    43    44    1
    35    44    45    1
    36    45    46    1
    37    46    47    1
    38    47    48    1
    39    35    36   ar
    40    28    29   ar
    41    29    30   ar
    42    10    11   ar
    43    11    12   ar
    44    17    13    1
    45    12     7   ar
    46    30    25   ar
    47    36    31   ar
    48    42    37    1
    49    48    43    1
    50    20    23    1
    51    20    24    1
    52     1     5    1
    53     4     6    1
@<TRIPOS>MOLECULE
*****
 48 53 0 0 0
SMALL
GASTEIGER

@<TRIPOS>ATOM
      1 N         144.4866  140.7525  162.6972 N.am    1  UNL1       -0.2681
      2 C         143.6685  141.3275  161.5792 C.2     1  UNL1        0.3082
      3 O         142.3519  141.9831  161.8737 O.2     1  UNL1       -0.2522
      4 N         144.1669  141.2469  160.1667 N.am    1  UNL1       -0.2681
      5 H         145.3507  140.3222  162.5039 H       1  UNL1        0.1564
      6 H         145.0310  140.8166  159.9734 H       1  UNL1        0.1564
      7 C         142.9914  140.9943  166.9346 C.ar    1  UNL1        0.0537
      8 C         143.4183  142.2408  166.2177 C.ar    1  UNL1        0.0058
      9 C         143.9167  142.1602  164.8052 C.ar    1  UNL1        0.0149
     10 C         143.9882  140.8331  164.1097 C.ar    1  UNL1        0.0516
     11 C         143.5613  139.5866  164.8267 C.ar    1  UNL1        0.0149
     12 C         143.0629  139.6672  166.2391 C.ar    1  UNL1        0.0058
     13 C         140.4552  140.6798  170.0313 C.3     1  UNL1        0.1518
     14 C         139.0486  140.1770  169.8949 C.3     1  UNL1        0.0310
     15 C         138.8142  139.8416  168.4517 C.3     1  UNL1        0.0237
     16 C         140.0759  140.1371  167.6963 C.3     1  UNL1        0.0942
     17 N         141.0901  140.6552  168.6725 N.am    1  UNL1       -0.2695
     18 C         142.4929  141.0749  168.3471 C.2     1  UNL1        0.2493
     19 O         143.3973  141.5753  169.4342 O.2     1  UNL1       -0.2699
     20 N         142.3275  140.4129  171.8128 N.am    1  UNL1       -0.3275
     21 C         141.1116  141.1285  171.3032 C.2     1  UNL1        0.2375
     22 O         140.5522  142.2929  172.0657 O.2     1  UNL1       -0.2736
     23 H         142.7583  140.7075  172.6476 H       1  UNL1        0.1450
     24 H         142.6948  139.6487  171.3124 H       1  UNL1        0.1450
     25 C         143.3488  141.8219  159.0487 C.ar    1  UNL1        0.0516
     26 C         142.4966  140.9224  158.2034 C.ar    1  UNL1        0.0148
     27 C         141.6784  141.4974  157.0854 C.ar    1  UNL1        0.0043
     28 C         141.7124  142.9720  156.8127 C.ar    1  UNL1        0.0361
     29 C         142.5646  143.8716  157.6580 C.ar    1  UNL1        0.0043
     30 C         143.3828  143.2965  158.7761 C.ar    1  UNL1        0.0148
     31 C         140.8943  143.5471  155.6947 C.ar    1  UNL1        0.1680
     32 N         141.1901  144.9248  155.1806 N.ar    1  UNL1       -0.1944
     33 C         140.3719  145.4999  154.0626 C.ar    1  UNL1        0.2240
     34 N         139.2579  144.6971  153.4587 N.ar    1  UNL1       -0.1807
     35 C         138.9621  143.3193  153.9728 C.ar    1  UNL1        0.2240
     36 N         139.7804  142.7443  155.0908 N.ar    1  UNL1       -0.1944
     37 N         140.6677  146.8776  153.5486 N.pl3   1  UNL1       -0.2729
     38 C         139.9276  148.0593  154.1015 C.3     1  UNL1        0.1257
     39 C         140.2234  149.4371  153.5874 C.3     1  UNL1        0.1637
     40 O         141.2592  149.6331  152.5204 O.3     1  UNL1       -0.3501
     41 C         141.9994  148.4514  151.9674 C.3     1  UNL1        0.1637
     42 C         141.7036  147.0736  152.4815 C.3     1  UNL1        0.1257
     43 N         137.8482  142.5166  153.3689 N.pl3   1  UNL1       -0.2729
     44 C         138.0989  141.1092  152.9144 C.3     1  UNL1        0.1257
     45 C         136.9850  140.3065  152.3105 C.3     1  UNL1        0.1637
     46 O         135.6203  140.9110  152.1610 O.3     1  UNL1       -0.3501
     47 C         135.3697  142.3184  152.6155 C.3     1  UNL1        0.1637
     48 C         136.4836  143.1212  153.2194 C.3     1  UNL1        0.1257
@<TRIPOS>BOND
     1    20    21   am
     2    21    22    2
     3    13    21    1
     4    13    14    1
     5    14    15    1
     6    15    16    1
     7    16    17    1
     8    17    18   am
     9    18    19    2
    10    18     7    1
    11     7     8   ar
    12     8     9   ar
    13     9    10   ar
    14    10     1    1
    15     1     2   am
    16     2     3    2
    17     2     4   am
    18     4    25    1
    19    25    26   ar
    20    26    27   ar
    21    27    28   ar
    22    28    31    1
    23    31    32   ar
    24    32    33   ar
    25    33    37    1
    26    37    38    1
    27    38    39    1
    28    39    40    1
    29    40    41    1
    30    41    42    1
    31    33    34   ar
    32    34    35   ar
    33    35    43    1
    34    43    44    1
    35    44    45    1
    36    45    46    1
    37    46    47    1
    38    47    48    1
    39    35    36   ar
    40    28    29   ar
    41    29    30   ar
    42    10    11   ar
    43    11    12   ar
    44    17    13    1
    45    12     7   ar
    46    30    25   ar
    47    36    31   ar
    48    42    37    1
    49    48    43    1
    50    20    23    1
    51    20    24    1
    52     1     5    1
    53     4     6    1
@<TRIPOS>MOLECULE
*****
 48 53 0 0 0
SMALL
GASTEIGER

@<TRIPOS>ATOM
      1 N         144.6515  141.0583  162.8698 N.am    1  UNL1       -0.2681
      2 C         143.8823  140.3529  161.7924 C.2     1  UNL1        0.3082
      3 O         142.5826  139.6785  162.1177 O.2     1  UNL1       -0.2522
      4 N         144.4130  140.3219  160.3897 N.am    1  UNL1       -0.2681
      5 H         145.5046  141.5010  162.6563 H       1  UNL1        0.1564
      6 H         145.2660  140.7645  160.1762 H       1  UNL1        0.1564
      7 C         143.0597  141.1513  167.0778 C.ar    1  UNL1        0.0537
      8 C         143.3257  139.8372  166.4055 C.ar    1  UNL1        0.0058
      9 C         143.8563  139.8062  165.0028 C.ar    1  UNL1        0.0149
     10 C         144.1209  141.0894  164.2725 C.ar    1  UNL1        0.0516
     11 C         143.8548  142.4036  164.9448 C.ar    1  UNL1        0.0149
     12 C         143.3242  142.4346  166.3475 C.ar    1  UNL1        0.0058
     13 C         140.4570  140.7189  170.1043 C.3     1  UNL1        0.1518
     14 C         139.0576  140.2116  169.9197 C.3     1  UNL1        0.0310
     15 C         138.8581  139.9220  168.4614 C.3     1  UNL1        0.0237
     16 C         140.1342  140.2504  167.7448 C.3     1  UNL1        0.0942
     17 N         141.1224  140.7430  168.7602 N.am    1  UNL1       -0.2695
     18 C         142.5291  141.1824  168.4805 C.2     1  UNL1        0.2493
     19 O         143.4052  141.6529  169.6035 O.2     1  UNL1       -0.2699
     20 N         142.3185  140.4377  171.8948 N.am    1  UNL1       -0.3275
     21 C         141.0814  141.1301  171.4047 C.2     1  UNL1        0.2375
     22 O         140.4686  142.2336  172.2150 O.2     1  UNL1       -0.2736
     23 H         142.7283  140.7077  172.7483 H       1  UNL1        0.1450
     24 H         142.7208  139.7135  171.3630 H       1  UNL1        0.1450
     25 C         143.6438  139.6165  159.3123 C.ar    1  UNL1        0.0516
     26 C         143.2507  138.1798  159.4894 C.ar    1  UNL1        0.0148
     27 C         142.4816  137.4744  158.4120 C.ar    1  UNL1        0.0043
     28 C         142.1055  138.2057  157.1575 C.ar    1  UNL1        0.0361
     29 C         142.4986  139.6424  156.9804 C.ar    1  UNL1        0.0043
     30 C         143.2678  140.3478  158.0578 C.ar    1  UNL1        0.0148
     31 C         141.3364  137.5003  156.0801 C.ar    1  UNL1        0.1680
     32 N         140.2063  138.1997  155.3847 N.ar    1  UNL1       -0.1944
     33 C         139.4371  137.4943  154.3073 C.ar    1  UNL1        0.2240
     34 N         139.7981  136.0894  153.9253 N.ar    1  UNL1       -0.1807
     35 C         140.9282  135.3899  154.6207 C.ar    1  UNL1        0.2240
     36 N         141.6974  136.0954  155.6981 N.ar    1  UNL1       -0.1944
     37 N         138.3070  138.1938  153.6119 N.pl3   1  UNL1       -0.2729
     38 C         137.4208  137.4339  152.6700 C.3     1  UNL1        0.1257
     39 C         136.2907  138.1334  151.9746 C.3     1  UNL1        0.1637
     40 O         136.0468  139.5927  152.2212 O.3     1  UNL1       -0.3501
     41 C         136.9330  140.3527  153.1631 C.3     1  UNL1        0.1637
     42 C         138.0631  139.6532  153.8585 C.3     1  UNL1        0.1257
     43 N         141.2892  133.9850  154.2387 N.pl3   1  UNL1       -0.2729
     44 C         141.3757  132.9201  155.2917 C.3     1  UNL1        0.1257
     45 C         141.7367  131.5153  154.9097 C.3     1  UNL1        0.1637
     46 O         142.0112  131.1752  153.4748 O.3     1  UNL1       -0.3501
     47 C         141.9247  132.2399  152.4219 C.3     1  UNL1        0.1637
     48 C         141.5637  133.6449  152.8038 C.3     1  UNL1        0.1257
@<TRIPOS>BOND
     1    20    21   am
     2    21    22    2
     3    13    21    1
     4    13    14    1
     5    14    15    1
     6    15    16    1
     7    16    17    1
     8    17    18   am
     9    18    19    2
    10    18     7    1
    11     7     8   ar
    12     8     9   ar
    13     9    10   ar
    14    10     1    1
    15     1     2   am
    16     2     3    2
    17     2     4   am
    18     4    25    1
    19    25    26   ar
    20    26    27   ar
    21    27    28   ar
    22    28    31    1
    23    31    32   ar
    24    32    33   ar
    25    33    37    1
    26    37    38    1
    27    38    39    1
    28    39    40    1
    29    40    41    1
    30    41    42    1
    31    33    34   ar
    32    34    35   ar
    33    35    43    1
    34    43    44    1
    35    44    45    1
    36    45    46    1
    37    46    47    1
    38    47    48    1
    39    35    36   ar
    40    28    29   ar
    41    29    30   ar
    42    10    11   ar
    43    11    12   ar
    44    17    13    1
    45    12     7   ar
    46    30    25   ar
    47    36    31   ar
    48    42    37    1
    49    48    43    1
    50    20    23    1
    51    20    24    1
    52     1     5    1
    53     4     6    1
@<TRIPOS>MOLECULE
*****
 48 53 0 0 0
SMALL
GASTEIGER

@<TRIPOS>ATOM
      1 N         144.1070  135.5198  155.4921 N.am    1  UNL1       -0.2681
      2 C         143.4249  136.7605  155.9874 C.2     1  UNL1        0.3082
      3 O         141.9701  136.7223  156.3508 O.2     1  UNL1       -0.2522
      4 N         144.1976  138.0394  156.1194 N.am    1  UNL1       -0.2681
      5 H         145.0619  135.5449  155.2536 H       1  UNL1        0.1564
      6 H         145.1524  138.0645  155.8809 H       1  UNL1        0.1564
      7 C         141.7890  131.6832  155.0961 C.ar    1  UNL1        0.0537
      8 C         141.7772  132.6851  153.9799 C.ar    1  UNL1        0.0058
      9 C         142.5499  133.9640  154.1119 C.ar    1  UNL1        0.0149
     10 C         143.3343  134.2409  155.3601 C.ar    1  UNL1        0.0516
     11 C         143.3461  133.2389  156.4763 C.ar    1  UNL1        0.0149
     12 C         142.5734  131.9601  156.3443 C.ar    1  UNL1        0.0058
     13 C         141.1093  127.7464  154.6960 C.3     1  UNL1        0.1518
     14 C         142.2061  126.7280  154.5972 C.3     1  UNL1        0.0310
     15 C         143.5182  127.4509  154.6750 C.3     1  UNL1        0.0237
     16 C         143.2321  128.9160  154.8219 C.3     1  UNL1        0.0942
     17 N         141.7433  129.0986  154.8349 N.am    1  UNL1       -0.2695
     18 C         141.0163  130.4042  154.9641 C.2     1  UNL1        0.2493
     19 O         139.5165  130.4310  154.9613 O.2     1  UNL1       -0.2699
     20 N         138.8409  127.4746  155.9334 N.am    1  UNL1       -0.3275
     21 C         139.6368  127.4623  154.6620 C.2     1  UNL1        0.2375
     22 O         138.9602  127.1659  153.3565 O.2     1  UNL1       -0.2736
     23 H         137.8745  127.2881  155.9110 H       1  UNL1        0.1450
     24 H         139.2849  127.6691  156.7903 H       1  UNL1        0.1450
     25 C         143.5155  139.2801  156.6147 C.ar    1  UNL1        0.0516
     26 C         143.3664  139.5165  158.0884 C.ar    1  UNL1        0.0148
     27 C         142.6843  140.7572  158.5838 C.ar    1  UNL1        0.0043
     28 C         142.1512  141.7615  157.6054 C.ar    1  UNL1        0.0361
     29 C         142.3002  141.5251  156.1316 C.ar    1  UNL1        0.0043
     30 C         142.9824  140.2843  155.6363 C.ar    1  UNL1        0.0148
     31 C         141.4691  143.0022  158.1007 C.ar    1  UNL1        0.1680
     32 N         141.1665  143.1594  159.5614 N.ar    1  UNL1       -0.1944
     33 C         140.4844  144.4001  160.0567 C.ar    1  UNL1        0.2240
     34 N         140.1048  145.4836  159.0913 N.ar    1  UNL1       -0.1807
     35 C         140.4074  145.3264  157.6306 C.ar    1  UNL1        0.2240
     36 N         141.0895  144.0856  157.1353 N.ar    1  UNL1       -0.1944
     37 N         140.1818  144.5573  161.5175 N.pl3   1  UNL1       -0.2729
     38 C         141.2478  145.0382  162.4567 C.3     1  UNL1        0.1257
     39 C         140.9452  145.1955  163.9174 C.3     1  UNL1        0.1637
     40 O         139.5766  144.8717  164.4389 O.3     1  UNL1       -0.3501
     41 C         138.5105  144.3908  163.4997 C.3     1  UNL1        0.1637
     42 C         138.8130  144.2335  162.0389 C.3     1  UNL1        0.1257
     43 N         140.0278  146.4098  156.6652 N.pl3   1  UNL1       -0.2729
     44 C         140.6232  146.4301  155.2885 C.3     1  UNL1        0.1257
     45 C         140.2437  147.5135  154.3231 C.3     1  UNL1        0.1637
     46 O         139.2688  148.5768  154.7343 O.3     1  UNL1       -0.3501
     47 C         138.6734  148.5565  156.1109 C.3     1  UNL1        0.1637
     48 C         139.0529  147.4731  157.0764 C.3     1  UNL1        0.1257
@<TRIPOS>BOND
     1    20    21   am
     2    21    22    2
     3    13    21    1
     4    13    14    1
     5    14    15    1
     6    15    16    1
     7    16    17    1
     8    17    18   am
     9    18    19    2
    10    18     7    1
    11     7     8   ar
    12     8     9   ar
    13     9    10   ar
    14    10     1    1
    15     1     2   am
    16     2     3    2
    17     2     4   am
    18     4    25    1
    19    25    26   ar
    20    26    27   ar
    21    27    28   ar
    22    28    31    1
    23    31    32   ar
    24    32    33   ar
    25    33    37    1
    26    37    38    1
    27    38    39    1
    28    39    40    1
    29    40    41    1
    30    41    42    1
    31    33    34   ar
    32    34    35   ar
    33    35    43    1
    34    43    44    1
    35    44    45    1
    36    45    46    1
    37    46    47    1
    38    47    48    1
    39    35    36   ar
    40    28    29   ar
    41    29    30   ar
    42    10    11   ar
    43    11    12   ar
    44    17    13    1
    45    12     7   ar
    46    30    25   ar
    47    36    31   ar
    48    42    37    1
    49    48    43    1
    50    20    23    1
    51    20    24    1
    52     1     5    1
    53     4     6    1
@<TRIPOS>MOLECULE
*****
 48 53 0 0 0
SMALL
GASTEIGER

@<TRIPOS>ATOM
      1 N         144.0502  135.3059  155.5443 N.am    1  UNL1       -0.2681
      2 C         143.3440  136.5456  156.0073 C.2     1  UNL1        0.3082
      3 O         141.8828  136.4955  156.3426 O.2     1  UNL1       -0.2522
      4 N         144.0990  137.8355  156.1350 N.am    1  UNL1       -0.2681
      5 H         145.0092  135.3389  155.3242 H       1  UNL1        0.1564
      6 H         145.0580  137.8684  155.9150 H       1  UNL1        0.1564
      7 C         141.7854  131.4364  155.1610 C.ar    1  UNL1        0.0537
      8 C         141.7936  132.4162  154.0253 C.ar    1  UNL1        0.0058
      9 C         142.5485  133.7060  154.1531 C.ar    1  UNL1        0.0149
     10 C         143.2953  134.0160  155.4166 C.ar    1  UNL1        0.0516
     11 C         143.2870  133.0362  156.5523 C.ar    1  UNL1        0.0149
     12 C         142.5321  131.7464  156.4245 C.ar    1  UNL1        0.0058
     13 C         141.1600  127.4880  154.7875 C.3     1  UNL1        0.1518
     14 C         142.2708  126.4833  154.7055 C.3     1  UNL1        0.0310
     15 C         143.5727  127.2238  154.7878 C.3     1  UNL1        0.0237
     16 C         143.2665  128.6862  154.9206 C.3     1  UNL1        0.0942
     17 N         141.7753  128.8495  154.9204 N.am    1  UNL1       -0.2695
     18 C         141.0304  130.1465  155.0333 C.2     1  UNL1        0.2493
     19 O         139.5305  130.1537  155.0185 O.2     1  UNL1       -0.2699
     20 N         138.8723  127.2622  155.9981 N.am    1  UNL1       -0.3275
     21 C         139.6917  127.1845  154.7441 C.2     1  UNL1        0.2375
     22 O         139.0427  126.8032  153.4466 O.2     1  UNL1       -0.2736
     23 H         137.9085  127.0630  155.9695 H       1  UNL1        0.1450
     24 H         139.2982  127.5125  156.8497 H       1  UNL1        0.1450
     25 C         143.3927  139.0752  156.5980 C.ar    1  UNL1        0.0516
     26 C         143.0719  140.1655  155.6191 C.ar    1  UNL1        0.0148
     27 C         142.3657  141.4052  156.0821 C.ar    1  UNL1        0.0043
     28 C         141.9803  141.5546  157.5241 C.ar    1  UNL1        0.0361
     29 C         142.3011  140.4642  158.5030 C.ar    1  UNL1        0.0043
     30 C         143.0074  139.2245  158.0399 C.ar    1  UNL1        0.0148
     31 C         141.2740  142.7942  157.9871 C.ar    1  UNL1        0.1680
     32 N         140.9948  143.9046  157.0180 N.ar    1  UNL1       -0.1944
     33 C         140.2886  145.1443  157.4810 C.ar    1  UNL1        0.2240
     34 N         139.8616  145.2736  158.9132 N.ar    1  UNL1       -0.1807
     35 C         140.1408  144.1633  159.8823 C.ar    1  UNL1        0.2240
     36 N         140.8470  142.9235  159.4192 N.ar    1  UNL1       -0.1944
     37 N         140.0094  146.2547  156.5120 N.pl3   1  UNL1       -0.2729
     38 C         140.6657  146.2557  155.1632 C.3     1  UNL1        0.1257
     39 C         140.3865  147.3661  154.1941 C.3     1  UNL1        0.1637
     40 O         139.4510  148.4754  154.5738 O.3     1  UNL1       -0.3501
     41 C         138.7947  148.4744  155.9227 C.3     1  UNL1        0.1637
     42 C         139.0739  147.3641  156.8917 C.3     1  UNL1        0.1257
     43 N         139.7137  144.2926  161.3143 N.pl3   1  UNL1       -0.2729
     44 C         140.5677  145.0520  162.2860 C.3     1  UNL1        0.1257
     45 C         140.1407  145.1812  163.7181 C.3     1  UNL1        0.1637
     46 O         138.8597  144.5512  164.1786 O.3     1  UNL1       -0.3501
     47 C         138.0057  143.7918  163.2070 C.3     1  UNL1        0.1637
     48 C         138.4327  143.6625  161.7748 C.3     1  UNL1        0.1257
@<TRIPOS>BOND
     1    20    21   am
     2    21    22    2
     3    13    21    1
     4    13    14    1
     5    14    15    1
     6    15    16    1
     7    16    17    1
     8    17    18   am
     9    18    19    2
    10    18     7    1
    11     7     8   ar
    12     8     9   ar
    13     9    10   ar
    14    10     1    1
    15     1     2   am
    16     2     3    2
    17     2     4   am
    18     4    25    1
    19    25    26   ar
    20    26    27   ar
    21    27    28   ar
    22    28    31    1
    23    31    32   ar
    24    32    33   ar
    25    33    37    1
    26    37    38    1
    27    38    39    1
    28    39    40    1
    29    40    41    1
    30    41    42    1
    31    33    34   ar
    32    34    35   ar
    33    35    43    1
    34    43    44    1
    35    44    45    1
    36    45    46    1
    37    46    47    1
    38    47    48    1
    39    35    36   ar
    40    28    29   ar
    41    29    30   ar
    42    10    11   ar
    43    11    12   ar
    44    17    13    1
    45    12     7   ar
    46    30    25   ar
    47    36    31   ar
    48    42    37    1
    49    48    43    1
    50    20    23    1
    51    20    24    1
    52     1     5    1
    53     4     6    1
@<TRIPOS>MOLECULE
*****
 48 53 0 0 0
SMALL
GASTEIGER

@<TRIPOS>ATOM
      1 N         144.4566  140.9590  162.8759 N.am    1  UNL1       -0.2681
      2 C         143.6276  141.5034  161.7507 C.2     1  UNL1        0.3082
      3 O         142.2889  142.1178  162.0345 O.2     1  UNL1       -0.2522
      4 N         144.1371  141.4334  160.3416 N.am    1  UNL1       -0.2681
      5 H         145.3352  140.5557  162.6897 H       1  UNL1        0.1564
      6 H         145.0157  141.0302  160.1553 H       1  UNL1        0.1564
      7 C         142.9279  141.1688  167.1031 C.ar    1  UNL1        0.0537
      8 C         142.9362  139.8587  166.3728 C.ar    1  UNL1        0.0058
      9 C         143.4458  139.7888  164.9638 C.ar    1  UNL1        0.0149
     10 C         143.9470  141.0290  164.2851 C.ar    1  UNL1        0.0516
     11 C         143.9387  142.3391  165.0154 C.ar    1  UNL1        0.0149
     12 C         143.4291  142.4091  166.4244 C.ar    1  UNL1        0.0058
     13 C         140.3910  140.7663  170.1890 C.3     1  UNL1        0.1518
     14 C         139.0094  140.1992  170.0496 C.3     1  UNL1        0.0310
     15 C         138.7985  139.8413  168.6082 C.3     1  UNL1        0.0237
     16 C         140.0499  140.1872  167.8569 C.3     1  UNL1        0.0942
     17 N         141.0341  140.7589  168.8339 N.am    1  UNL1       -0.2695
     18 C         142.4183  141.2388  168.5122 C.2     1  UNL1        0.2493
     19 O         143.2930  141.7888  169.5996 O.2     1  UNL1       -0.2699
     20 N         142.2597  140.5954  171.9860 N.am    1  UNL1       -0.3275
     21 C         141.0193  141.2550  171.4604 C.2     1  UNL1        0.2375
     22 O         140.4071  142.4035  172.2062 O.2     1  UNL1       -0.2736
     23 H         142.6720  140.9162  172.8205 H       1  UNL1        0.1450
     24 H         142.6615  139.8416  171.4965 H       1  UNL1        0.1450
     25 C         143.3081  141.9778  159.2163 C.ar    1  UNL1        0.0516
     26 C         142.4938  141.0478  158.3666 C.ar    1  UNL1        0.0148
     27 C         141.6647  141.5923  157.2413 C.ar    1  UNL1        0.0043
     28 C         141.6499  143.0667  156.9658 C.ar    1  UNL1        0.0361
     29 C         142.4642  143.9967  157.8155 C.ar    1  UNL1        0.0043
     30 C         143.2933  143.4522  158.9408 C.ar    1  UNL1        0.0148
     31 C         140.8209  143.6111  155.8405 C.ar    1  UNL1        0.1680
     32 N         139.7672  142.7549  155.2028 N.ar    1  UNL1       -0.1944
     33 C         138.9382  143.2993  154.0775 C.ar    1  UNL1        0.2240
     34 N         139.1627  144.7000  153.5900 N.ar    1  UNL1       -0.1807
     35 C         140.2164  145.5562  154.2277 C.ar    1  UNL1        0.2240
     36 N         141.0454  145.0118  155.3530 N.ar    1  UNL1       -0.1944
     37 N         137.8846  142.4430  153.4398 N.pl3   1  UNL1       -0.2729
     38 C         136.8097  143.0736  152.6049 C.3     1  UNL1        0.1257
     39 C         135.7561  142.2173  151.9672 C.3     1  UNL1        0.1637
     40 O         135.7773  140.7305  152.1643 O.3     1  UNL1       -0.3501
     41 C         136.8522  140.0999  152.9992 C.3     1  UNL1        0.1637
     42 C         137.9058  140.9561  153.6370 C.3     1  UNL1        0.1257
     43 N         140.4409  146.9569  153.7402 N.pl3   1  UNL1       -0.2729
     44 C         141.2227  147.1971  152.4827 C.3     1  UNL1        0.1257
     45 C         141.4473  148.5977  151.9952 C.3     1  UNL1        0.1637
     46 O         140.8901  149.7582  152.7651 O.3     1  UNL1       -0.3501
     47 C         140.1083  149.5181  154.0225 C.3     1  UNL1        0.1637
     48 C         139.8837  148.1174  154.5101 C.3     1  UNL1        0.1257
@<TRIPOS>BOND
     1    20    21   am
     2    21    22    2
     3    13    21    1
     4    13    14    1
     5    14    15    1
     6    15    16    1
     7    16    17    1
     8    17    18   am
     9    18    19    2
    10    18     7    1
    11     7     8   ar
    12     8     9   ar
    13     9    10   ar
    14    10     1    1
    15     1     2   am
    16     2     3    2
    17     2     4   am
    18     4    25    1
    19    25    26   ar
    20    26    27   ar
    21    27    28   ar
    22    28    31    1
    23    31    32   ar
    24    32    33   ar
    25    33    37    1
    26    37    38    1
    27    38    39    1
    28    39    40    1
    29    40    41    1
    30    41    42    1
    31    33    34   ar
    32    34    35   ar
    33    35    43    1
    34    43    44    1
    35    44    45    1
    36    45    46    1
    37    46    47    1
    38    47    48    1
    39    35    36   ar
    40    28    29   ar
    41    29    30   ar
    42    10    11   ar
    43    11    12   ar
    44    17    13    1
    45    12     7   ar
    46    30    25   ar
    47    36    31   ar
    48    42    37    1
    49    48    43    1
    50    20    23    1
    51    20    24    1
    52     1     5    1
    53     4     6    1
