@<TRIPOS>MOLECULE
*****
 34 38 0 0 0
SMALL
GASTEIGER

@<TRIPOS>ATOM
      1 N         142.1354  138.9210  159.4337 N.ar    1  UNL1       -0.2286
      2 C         140.6907  138.6803  159.7574 C.ar    1  UNL1        0.0990
      3 C         140.4542  139.1156  161.1732 C.ar    1  UNL1        0.0338
      4 C         141.7527  139.6254  161.7245 C.ar    1  UNL1        0.0981
      5 N         142.7918  139.5051  160.6494 N.ar    1  UNL1       -0.1680
      6 C         141.5162  140.0608  163.1403 C.3     1  UNL1        0.1414
      7 N         140.0714  139.8201  163.4641 N.am    1  UNL1       -0.2661
      8 C         139.4008  140.1122  164.7736 C.2     1  UNL1        0.2496
      9 O         137.9408  139.8168  164.9510 O.2     1  UNL1       -0.2699
     10 C         139.4151  139.2359  162.2483 C.3     1  UNL1        0.1236
     11 C         143.4944  135.5399  155.7295 C.3     1  UNL1        0.0521
     12 C         143.4856  136.9383  156.2720 C.ar    1  UNL1        0.0609
     13 C         142.8150  137.2305  157.5816 C.ar    1  UNL1        0.0339
     14 C         142.8061  138.6289  158.1242 C.ar    1  UNL1        0.0855
     15 C         143.4679  139.7351  157.3573 C.ar    1  UNL1        0.0398
     16 C         144.1386  139.4429  156.0477 C.ar    1  UNL1        0.1000
     17 N         144.1474  138.0445  155.5051 N.ar    1  UNL1       -0.2480
     18 C         140.1900  140.6997  165.9058 C.ar    1  UNL1        0.0549
     19 C         140.7569  139.8055  166.9683 C.ar    1  UNL1        0.0229
     20 C         141.5462  140.3930  168.1005 C.ar    1  UNL1        0.1059
     21 C         141.7685  141.8748  168.1703 C.ar    1  UNL1        0.0183
     22 C         141.2015  142.7691  167.1078 C.ar    1  UNL1        0.0015
     23 C         140.4123  142.1816  165.9756 C.ar    1  UNL1        0.0045
     24 C         139.8454  143.0758  164.9131 C.ar    1  UNL1        0.0024
     25 C         138.3629  143.2851  164.8214 C.ar    1  UNL1        0.0001
     26 C         137.7960  144.1794  163.7589 C.ar    1  UNL1        0.0023
     27 C         138.7116  144.8643  162.7881 C.ar    1  UNL1        0.0296
     28 C         140.1941  144.6551  162.8797 C.ar    1  UNL1        0.1401
     29 F         141.1096  145.3401  161.9089 F       1  UNL1       -0.2042
     30 C         140.7611  143.7608  163.9422 C.ar    1  UNL1        0.0296
     31 S         142.1130  139.4987  169.1630 S.O2    1  UNL1        0.0105
     32 C         142.6800  138.6043  170.2253 C.3     1  UNL1        0.1816
     33 O         143.1046  138.9559  168.1769 O.2     1  UNL1       -0.1686
     34 O         141.1216  140.0414  170.1491 O.2     1  UNL1       -0.1686
@<TRIPOS>BOND
     1    11    12    1
     2    12    13   ar
     3    13    14   ar
     4    14     1    1
     5     1     2   ar
     6     2     3   ar
     7     3     4   ar
     8     4     5   ar
     9     4     6    1
    10     6     7    1
    11     7     8   am
    12     8     9    2
    13     8    18    1
    14    18    19   ar
    15    19    20   ar
    16    20    31    1
    17    31    32    1
    18    31    33    2
    19    31    34    2
    20    20    21   ar
    21    21    22   ar
    22    22    23   ar
    23    23    24    1
    24    24    25   ar
    25    25    26   ar
    26    26    27   ar
    27    27    28   ar
    28    28    29    1
    29    28    30   ar
    30     7    10    1
    31    14    15   ar
    32    15    16   ar
    33    16    17   ar
    34    17    12   ar
    35     5     1   ar
    36    23    18   ar
    37    30    24   ar
    38    10     3    1
@<TRIPOS>MOLECULE
*****
 34 38 0 0 0
SMALL
GASTEIGER

@<TRIPOS>ATOM
      1 N         141.8222  143.7560  159.8329 N.ar    1  UNL1       -0.2286
      2 C         142.9044  142.7273  159.9761 C.ar    1  UNL1        0.0990
      3 C         142.8489  142.1877  161.3745 C.ar    1  UNL1        0.0338
      4 C         141.7324  142.8829  162.0957 C.ar    1  UNL1        0.0981
      5 N         141.0978  143.8522  161.1429 N.ar    1  UNL1       -0.1680
      6 C         141.6769  142.3434  163.4942 C.3     1  UNL1        0.1414
      7 N         142.7592  141.3146  163.6374 N.am    1  UNL1       -0.2661
      8 C         143.0636  140.5214  164.8735 C.2     1  UNL1        0.2496
      9 O         144.1828  139.5226  164.8671 O.2     1  UNL1       -0.2699
     10 C         143.4835  141.2185  162.3273 C.3     1  UNL1        0.1236
     11 C         142.8685  144.9608  154.8878 C.3     1  UNL1        0.0521
     12 C         142.0409  145.1517  156.1242 C.ar    1  UNL1        0.0609
     13 C         142.3453  144.3585  157.3604 C.ar    1  UNL1        0.0339
     14 C         141.5177  144.5493  158.5968 C.ar    1  UNL1        0.0855
     15 C         140.3857  145.5334  158.5970 C.ar    1  UNL1        0.0398
     16 C         140.0812  146.3266  157.3608 C.ar    1  UNL1        0.1000
     17 N         140.9088  146.1358  156.1244 N.ar    1  UNL1       -0.2480
     18 C         142.2489  140.7268  166.1161 C.ar    1  UNL1        0.0549
     19 C         142.7962  141.5503  167.2441 C.ar    1  UNL1        0.0229
     20 C         141.9815  141.7557  168.4867 C.ar    1  UNL1        0.1059
     21 C         140.6196  141.1377  168.6014 C.ar    1  UNL1        0.0183
     22 C         140.0723  140.3142  167.4733 C.ar    1  UNL1        0.0015
     23 C         140.8870  140.1088  166.2307 C.ar    1  UNL1        0.0045
     24 C         140.3397  139.2853  165.1028 C.ar    1  UNL1        0.0024
     25 C         140.9358  137.9435  164.7957 C.ar    1  UNL1        0.0001
     26 C         140.3886  137.1201  163.6677 C.ar    1  UNL1        0.0023
     27 C         139.2452  137.6384  162.8468 C.ar    1  UNL1        0.0296
     28 C         138.6490  138.9801  163.1537 C.ar    1  UNL1        0.1401
     29 F         137.5056  139.4984  162.3328 F       1  UNL1       -0.2042
     30 C         139.1962  139.8036  164.2818 C.ar    1  UNL1        0.0296
     31 S         142.5289  142.5792  169.6147 S.O2    1  UNL1        0.0105
     32 C         143.0761  143.4027  170.7426 C.3     1  UNL1        0.1816
     33 O         141.2350  142.4219  170.3573 O.2     1  UNL1       -0.1686
     34 O         143.8226  142.7365  168.8721 O.2     1  UNL1       -0.1686
@<TRIPOS>BOND
     1    11    12    1
     2    12    13   ar
     3    13    14   ar
     4    14     1    1
     5     1     2   ar
     6     2     3   ar
     7     3     4   ar
     8     4     5   ar
     9     4     6    1
    10     6     7    1
    11     7     8   am
    12     8     9    2
    13     8    18    1
    14    18    19   ar
    15    19    20   ar
    16    20    31    1
    17    31    32    1
    18    31    33    2
    19    31    34    2
    20    20    21   ar
    21    21    22   ar
    22    22    23   ar
    23    23    24    1
    24    24    25   ar
    25    25    26   ar
    26    26    27   ar
    27    27    28   ar
    28    28    29    1
    29    28    30   ar
    30     7    10    1
    31    14    15   ar
    32    15    16   ar
    33    16    17   ar
    34    17    12   ar
    35     5     1   ar
    36    23    18   ar
    37    30    24   ar
    38    10     3    1
@<TRIPOS>MOLECULE
*****
 34 38 0 0 0
SMALL
GASTEIGER

@<TRIPOS>ATOM
      1 N         142.9484  140.2825  159.3268 N.ar    1  UNL1       -0.2286
      2 C         141.5811  139.6884  159.4922 C.ar    1  UNL1        0.0990
      3 C         141.1673  139.8685  160.9227 C.ar    1  UNL1        0.0338
      4 C         142.2790  140.5740  161.6414 C.ar    1  UNL1        0.0981
      5 N         143.3798  140.8299  160.6551 N.ar    1  UNL1       -0.1680
      6 C         141.8653  140.7542  163.0719 C.3     1  UNL1        0.1414
      7 N         140.4978  140.1600  163.2373 N.am    1  UNL1       -0.2661
      8 C         139.7016  140.1203  164.5079 C.2     1  UNL1        0.2496
      9 O         138.3408  139.4894  164.5208 O.2     1  UNL1       -0.2699
     10 C         140.0666  139.6127  161.9090 C.3     1  UNL1        0.1236
     11 C         146.7574  142.3585  156.4664 C.3     1  UNL1        0.0521
     12 C         145.6492  141.3603  156.6260 C.ar    1  UNL1        0.0609
     13 C         144.8529  141.3205  157.8966 C.ar    1  UNL1        0.0339
     14 C         143.7447  140.3223  158.0562 C.ar    1  UNL1        0.0855
     15 C         143.4327  139.3640  156.9453 C.ar    1  UNL1        0.0398
     16 C         144.2291  139.4038  155.6747 C.ar    1  UNL1        0.1000
     17 N         145.3373  140.4020  155.5150 N.ar    1  UNL1       -0.2480
     18 C         140.2662  140.7113  165.7656 C.ar    1  UNL1        0.0549
     19 C         140.8683  139.8181  166.8095 C.ar    1  UNL1        0.0229
     20 C         141.4329  140.4092  168.0673 C.ar    1  UNL1        0.1059
     21 C         141.3954  141.8933  168.2812 C.ar    1  UNL1        0.0183
     22 C         140.7933  142.7866  167.2372 C.ar    1  UNL1        0.0015
     23 C         140.2287  142.1955  165.9795 C.ar    1  UNL1        0.0045
     24 C         139.6267  143.0887  164.9356 C.ar    1  UNL1        0.0024
     25 C         138.1589  143.0095  164.6367 C.ar    1  UNL1        0.0001
     26 C         137.5568  143.9027  163.5928 C.ar    1  UNL1        0.0023
     27 C         138.4226  144.8750  162.8478 C.ar    1  UNL1        0.0296
     28 C         139.8903  144.9543  163.1466 C.ar    1  UNL1        0.1401
     29 F         140.7560  145.9266  162.4016 F       1  UNL1       -0.2042
     30 C         140.4924  144.0611  164.1905 C.ar    1  UNL1        0.0296
     31 S         142.0349  139.5159  169.1112 S.O2    1  UNL1        0.0105
     32 C         142.6368  138.6227  170.1551 C.3     1  UNL1        0.1816
     33 O         140.9947  139.9642  170.0946 O.2     1  UNL1       -0.1686
     34 O         143.0750  139.0676  168.1278 O.2     1  UNL1       -0.1686
@<TRIPOS>BOND
     1    11    12    1
     2    12    13   ar
     3    13    14   ar
     4    14     1    1
     5     1     2   ar
     6     2     3   ar
     7     3     4   ar
     8     4     5   ar
     9     4     6    1
    10     6     7    1
    11     7     8   am
    12     8     9    2
    13     8    18    1
    14    18    19   ar
    15    19    20   ar
    16    20    31    1
    17    31    32    1
    18    31    33    2
    19    31    34    2
    20    20    21   ar
    21    21    22   ar
    22    22    23   ar
    23    23    24    1
    24    24    25   ar
    25    25    26   ar
    26    26    27   ar
    27    27    28   ar
    28    28    29    1
    29    28    30   ar
    30     7    10    1
    31    14    15   ar
    32    15    16   ar
    33    16    17   ar
    34    17    12   ar
    35     5     1   ar
    36    23    18   ar
    37    30    24   ar
    38    10     3    1
@<TRIPOS>MOLECULE
*****
 34 38 0 0 0
SMALL
GASTEIGER

@<TRIPOS>ATOM
      1 N         142.0687  138.8943  159.5646 N.ar    1  UNL1       -0.2286
      2 C         143.1895  139.8839  159.6852 C.ar    1  UNL1        0.0990
      3 C         143.1115  140.5088  161.0465 C.ar    1  UNL1        0.0338
      4 C         141.9425  139.9055  161.7673 C.ar    1  UNL1        0.0981
      5 N         141.2980  138.9076  160.8514 N.ar    1  UNL1       -0.1680
      6 C         141.8645  140.5305  163.1286 C.3     1  UNL1        0.1414
      7 N         142.9853  141.5202  163.2493 N.am    1  UNL1       -0.2661
      8 C         143.2831  142.3733  164.4464 C.2     1  UNL1        0.2496
      9 O         144.4444  143.3225  164.4209 O.2     1  UNL1       -0.2699
     10 C         143.7559  141.5067  161.9624 C.3     1  UNL1        0.1236
     11 C         143.5541  135.3002  156.1184 C.3     1  UNL1        0.0521
     12 C         142.5136  136.2440  156.6442 C.ar    1  UNL1        0.0609
     13 C         142.8113  137.0972  157.8415 C.ar    1  UNL1        0.0339
     14 C         141.7709  138.0411  158.3674 C.ar    1  UNL1        0.0855
     15 C         140.4325  138.1316  157.6960 C.ar    1  UNL1        0.0398
     16 C         140.1348  137.2784  156.4988 C.ar    1  UNL1        0.1000
     17 N         141.1753  136.3346  155.9729 N.ar    1  UNL1       -0.2480
     18 C         142.4197  142.2774  165.6693 C.ar    1  UNL1        0.0549
     19 C         142.9158  141.5478  166.8823 C.ar    1  UNL1        0.0229
     20 C         142.0523  141.4519  168.1052 C.ar    1  UNL1        0.1059
     21 C         140.6929  142.0856  168.1150 C.ar    1  UNL1        0.0183
     22 C         140.1967  142.8153  166.9019 C.ar    1  UNL1        0.0015
     23 C         141.0601  142.9112  165.6791 C.ar    1  UNL1        0.0045
     24 C         140.5640  143.6408  164.4660 C.ar    1  UNL1        0.0024
     25 C         141.2383  144.9056  164.0236 C.ar    1  UNL1        0.0001
     26 C         140.7422  145.6352  162.8105 C.ar    1  UNL1        0.0023
     27 C         139.5718  145.1000  162.0399 C.ar    1  UNL1        0.0296
     28 C         138.8975  143.8353  162.4822 C.ar    1  UNL1        0.1401
     29 F         137.7272  143.3002  161.7116 F       1  UNL1       -0.2042
     30 C         139.3936  143.1056  163.6953 C.ar    1  UNL1        0.0296
     31 S         142.5485  140.7223  169.3182 S.O2    1  UNL1        0.0105
     32 C         143.0447  139.9928  170.5313 C.3     1  UNL1        0.1816
     33 O         142.1244  141.8721  170.1832 O.2     1  UNL1       -0.1686
     34 O         142.9726  139.5725  168.4533 O.2     1  UNL1       -0.1686
@<TRIPOS>BOND
     1    11    12    1
     2    12    13   ar
     3    13    14   ar
     4    14     1    1
     5     1     2   ar
     6     2     3   ar
     7     3     4   ar
     8     4     5   ar
     9     4     6    1
    10     6     7    1
    11     7     8   am
    12     8     9    2
    13     8    18    1
    14    18    19   ar
    15    19    20   ar
    16    20    31    1
    17    31    32    1
    18    31    33    2
    19    31    34    2
    20    20    21   ar
    21    21    22   ar
    22    22    23   ar
    23    23    24    1
    24    24    25   ar
    25    25    26   ar
    26    26    27   ar
    27    27    28   ar
    28    28    29    1
    29    28    30   ar
    30     7    10    1
    31    14    15   ar
    32    15    16   ar
    33    16    17   ar
    34    17    12   ar
    35     5     1   ar
    36    23    18   ar
    37    30    24   ar
    38    10     3    1
@<TRIPOS>MOLECULE
*****
 34 38 0 0 0
SMALL
GASTEIGER

@<TRIPOS>ATOM
      1 N         144.1427  141.8874  159.0561 N.ar    1  UNL1       -0.2286
      2 C         143.2320  143.0576  159.2821 C.ar    1  UNL1        0.0990
      3 C         142.6711  142.9474  160.6689 C.ar    1  UNL1        0.0338
      4 C         143.2352  141.7091  161.3001 C.ar    1  UNL1        0.0981
      5 N         144.1447  141.0539  160.3033 N.ar    1  UNL1       -0.1680
      6 C         142.6744  141.5989  162.6869 C.3     1  UNL1        0.1414
      7 N         141.7636  142.7692  162.9129 N.am    1  UNL1       -0.2661
      8 C         140.9906  143.0557  164.1660 C.2     1  UNL1        0.2496
      9 O         140.1155  144.2714  164.2461 O.2     1  UNL1       -0.2699
     10 C         141.7616  143.6026  161.6657 C.3     1  UNL1        0.1236
     11 C         144.9464  138.9689  154.8328 C.3     1  UNL1        0.0521
     12 C         145.3176  140.1416  155.6913 C.ar    1  UNL1        0.0609
     13 C         144.5446  140.4282  156.9444 C.ar    1  UNL1        0.0339
     14 C         144.9157  141.6008  157.8030 C.ar    1  UNL1        0.0855
     15 C         146.0599  142.4870  157.4084 C.ar    1  UNL1        0.0398
     16 C         146.8329  142.2003  156.1553 C.ar    1  UNL1        0.1000
     17 N         146.4618  141.0277  155.2967 N.ar    1  UNL1       -0.2480
     18 C         141.0926  142.1265  165.3391 C.ar    1  UNL1        0.0549
     19 C         141.9772  142.4770  166.4987 C.ar    1  UNL1        0.0229
     20 C         142.0792  141.5478  167.6720 C.ar    1  UNL1        0.1059
     21 C         141.2967  140.2683  167.6855 C.ar    1  UNL1        0.0183
     22 C         140.4122  139.9177  166.5259 C.ar    1  UNL1        0.0015
     23 C         140.3101  140.8468  165.3527 C.ar    1  UNL1        0.0045
     24 C         139.4256  140.4963  164.1931 C.ar    1  UNL1        0.0024
     25 C         138.1901  141.3025  163.9217 C.ar    1  UNL1        0.0001
     26 C         137.3056  140.9520  162.7620 C.ar    1  UNL1        0.0023
     27 C         137.6566  139.7953  161.8739 C.ar    1  UNL1        0.0296
     28 C         138.8920  138.9891  162.1452 C.ar    1  UNL1        0.1401
     29 F         139.2429  137.8324  161.2570 F       1  UNL1       -0.2042
     30 C         139.7766  139.3396  163.3048 C.ar    1  UNL1        0.0296
     31 S         142.9638  141.8985  168.8315 S.O2    1  UNL1        0.0105
     32 C         143.8483  142.2490  169.9912 C.3     1  UNL1        0.1816
     33 O         142.1642  140.9886  169.7165 O.2     1  UNL1       -0.1686
     34 O         143.7633  142.8083  167.9467 O.2     1  UNL1       -0.1686
@<TRIPOS>BOND
     1    11    12    1
     2    12    13   ar
     3    13    14   ar
     4    14     1    1
     5     1     2   ar
     6     2     3   ar
     7     3     4   ar
     8     4     5   ar
     9     4     6    1
    10     6     7    1
    11     7     8   am
    12     8     9    2
    13     8    18    1
    14    18    19   ar
    15    19    20   ar
    16    20    31    1
    17    31    32    1
    18    31    33    2
    19    31    34    2
    20    20    21   ar
    21    21    22   ar
    22    22    23   ar
    23    23    24    1
    24    24    25   ar
    25    25    26   ar
    26    26    27   ar
    27    27    28   ar
    28    28    29    1
    29    28    30   ar
    30     7    10    1
    31    14    15   ar
    32    15    16   ar
    33    16    17   ar
    34    17    12   ar
    35     5     1   ar
    36    23    18   ar
    37    30    24   ar
    38    10     3    1
@<TRIPOS>MOLECULE
*****
 34 38 0 0 0
SMALL
GASTEIGER

@<TRIPOS>ATOM
      1 N         140.9483  144.1114  158.9896 N.ar    1  UNL1       -0.2286
      2 C         142.4416  144.0446  159.1153 C.ar    1  UNL1        0.0990
      3 C         142.7676  143.4004  160.4301 C.ar    1  UNL1        0.0338
      4 C         141.4759  143.0690  161.1170 C.ar    1  UNL1        0.0981
      5 N         140.3515  143.5084  160.2267 N.ar    1  UNL1       -0.1680
      6 C         141.8020  142.4248  162.4317 C.3     1  UNL1        0.1414
      7 N         143.2953  142.3580  162.5575 N.am    1  UNL1       -0.2661
      8 C         144.0578  141.7883  163.7167 C.2     1  UNL1        0.2496
      9 O         145.5578  141.7904  163.7016 O.2     1  UNL1       -0.2699
     10 C         143.8920  142.9610  161.3204 C.3     1  UNL1        0.1236
     11 C         137.7101  143.4620  154.9781 C.3     1  UNL1        0.0521
     12 C         138.5666  144.3564  155.8245 C.ar    1  UNL1        0.0609
     13 C         139.3292  143.7868  156.9839 C.ar    1  UNL1        0.0339
     14 C         140.1857  144.6811  157.8304 C.ar    1  UNL1        0.0855
     15 C         140.2797  146.1451  157.5176 C.ar    1  UNL1        0.0398
     16 C         139.5170  146.7147  156.3583 C.ar    1  UNL1        0.1000
     17 N         138.6605  145.8204  155.5118 N.ar    1  UNL1       -0.2480
     18 C         143.3205  141.2165  164.8912 C.ar    1  UNL1        0.0549
     19 C         143.3029  141.9541  166.1972 C.ar    1  UNL1        0.0229
     20 C         142.5656  141.3823  167.3717 C.ar    1  UNL1        0.1059
     21 C         141.8459  140.0729  167.2402 C.ar    1  UNL1        0.0183
     22 C         141.8634  139.3352  165.9342 C.ar    1  UNL1        0.0015
     23 C         142.6007  139.9070  164.7598 C.ar    1  UNL1        0.0045
     24 C         142.6183  139.1694  163.4538 C.ar    1  UNL1        0.0024
     25 C         143.9171  138.6756  162.8887 C.ar    1  UNL1        0.0001
     26 C         143.9347  137.9379  161.5828 C.ar    1  UNL1        0.0023
     27 C         142.6535  137.6941  160.8419 C.ar    1  UNL1        0.0296
     28 C         141.3547  138.1878  161.4068 C.ar    1  UNL1        0.1401
     29 F         140.0735  137.9439  160.6659 F       1  UNL1       -0.2042
     30 C         141.3370  138.9255  162.7128 C.ar    1  UNL1        0.0296
     31 S         142.5480  142.1200  168.6776 S.O2    1  UNL1        0.0105
     32 C         142.5304  142.8577  169.9836 C.3     1  UNL1        0.1816
     33 O         141.2514  141.4560  169.0353 O.2     1  UNL1       -0.1686
     34 O         143.8446  142.7841  168.3200 O.2     1  UNL1       -0.1686
@<TRIPOS>BOND
     1    11    12    1
     2    12    13   ar
     3    13    14   ar
     4    14     1    1
     5     1     2   ar
     6     2     3   ar
     7     3     4   ar
     8     4     5   ar
     9     4     6    1
    10     6     7    1
    11     7     8   am
    12     8     9    2
    13     8    18    1
    14    18    19   ar
    15    19    20   ar
    16    20    31    1
    17    31    32    1
    18    31    33    2
    19    31    34    2
    20    20    21   ar
    21    21    22   ar
    22    22    23   ar
    23    23    24    1
    24    24    25   ar
    25    25    26   ar
    26    26    27   ar
    27    27    28   ar
    28    28    29    1
    29    28    30   ar
    30     7    10    1
    31    14    15   ar
    32    15    16   ar
    33    16    17   ar
    34    17    12   ar
    35     5     1   ar
    36    23    18   ar
    37    30    24   ar
    38    10     3    1
@<TRIPOS>MOLECULE
*****
 34 38 0 0 0
SMALL
GASTEIGER

@<TRIPOS>ATOM
      1 N         140.4766  143.8161  159.9464 N.ar    1  UNL1       -0.2286
      2 C         141.7996  144.3143  160.4480 C.ar    1  UNL1        0.0990
      3 C         141.9797  143.8179  161.8519 C.ar    1  UNL1        0.0338
      4 C         140.7681  143.0129  162.2181 C.ar    1  UNL1        0.0981
      5 N         139.8391  143.0118  161.0404 N.ar    1  UNL1       -0.1680
      6 C         140.9483  142.5165  163.6220 C.3     1  UNL1        0.1414
      7 N         142.2713  143.0147  164.1237 N.am    1  UNL1       -0.2661
      8 C         142.8544  142.7544  165.4809 C.2     1  UNL1        0.2496
      9 O         144.1953  143.3213  165.8425 O.2     1  UNL1       -0.2699
     10 C         142.9087  143.8190  163.0296 C.3     1  UNL1        0.1236
     11 C         139.9468  146.8898  155.7905 C.3     1  UNL1        0.0521
     12 C         139.6285  145.6133  156.5111 C.ar    1  UNL1        0.0609
     13 C         140.2117  145.3529  157.8684 C.ar    1  UNL1        0.0339
     14 C         139.8935  144.0764  158.5891 C.ar    1  UNL1        0.0855
     15 C         138.9922  143.0604  157.9526 C.ar    1  UNL1        0.0398
     16 C         138.4091  143.3208  156.5953 C.ar    1  UNL1        0.1000
     17 N         138.7272  144.5972  155.8746 N.ar    1  UNL1       -0.2480
     18 C         142.0967  141.9271  166.4766 C.ar    1  UNL1        0.0549
     19 C         141.4552  142.5831  167.6632 C.ar    1  UNL1        0.0229
     20 C         140.6975  141.7557  168.6590 C.ar    1  UNL1        0.1059
     21 C         140.5812  140.2726  168.4681 C.ar    1  UNL1        0.0183
     22 C         141.2227  139.6165  167.2814 C.ar    1  UNL1        0.0015
     23 C         141.9804  140.4438  166.2857 C.ar    1  UNL1        0.0045
     24 C         142.6219  139.7878  165.0990 C.ar    1  UNL1        0.0024
     25 C         144.0910  139.9600  164.8499 C.ar    1  UNL1        0.0001
     26 C         144.7325  139.3041  163.6633 C.ar    1  UNL1        0.0023
     27 C         143.9048  138.4759  162.7257 C.ar    1  UNL1        0.0296
     28 C         142.4358  138.3037  162.9746 C.ar    1  UNL1        0.1401
     29 F         141.6081  137.4755  162.0370 F       1  UNL1       -0.2042
     30 C         141.7942  138.9596  164.1613 C.ar    1  UNL1        0.0296
     31 S         140.0560  142.4118  169.8457 S.O2    1  UNL1        0.0105
     32 C         139.4146  143.0680  171.0322 C.3     1  UNL1        0.1816
     33 O         140.1656  143.7453  169.1675 O.2     1  UNL1       -0.1686
     34 O         139.9464  141.0784  170.5239 O.2     1  UNL1       -0.1686
@<TRIPOS>BOND
     1    11    12    1
     2    12    13   ar
     3    13    14   ar
     4    14     1    1
     5     1     2   ar
     6     2     3   ar
     7     3     4   ar
     8     4     5   ar
     9     4     6    1
    10     6     7    1
    11     7     8   am
    12     8     9    2
    13     8    18    1
    14    18    19   ar
    15    19    20   ar
    16    20    31    1
    17    31    32    1
    18    31    33    2
    19    31    34    2
    20    20    21   ar
    21    21    22   ar
    22    22    23   ar
    23    23    24    1
    24    24    25   ar
    25    25    26   ar
    26    26    27   ar
    27    27    28   ar
    28    28    29    1
    29    28    30   ar
    30     7    10    1
    31    14    15   ar
    32    15    16   ar
    33    16    17   ar
    34    17    12   ar
    35     5     1   ar
    36    23    18   ar
    37    30    24   ar
    38    10     3    1
@<TRIPOS>MOLECULE
*****
 34 38 0 0 0
SMALL
GASTEIGER

@<TRIPOS>ATOM
      1 N         140.7960  139.6951  165.1404 N.ar    1  UNL1       -0.2286
      2 C         139.4767  139.7206  164.4271 C.ar    1  UNL1        0.0990
      3 C         139.7458  139.6613  162.9527 C.ar    1  UNL1        0.0338
      4 C         141.2314  139.5992  162.7547 C.ar    1  UNL1        0.0981
      5 N         141.8805  139.6200  164.1068 N.ar    1  UNL1       -0.1680
      6 C         141.5005  139.5399  161.2802 C.3     1  UNL1        0.1414
      7 N         140.1812  139.5654  160.5668 N.am    1  UNL1       -0.2661
      8 C         139.9815  139.5232  159.0809 C.2     1  UNL1        0.2496
      9 O         138.5950  139.5560  158.5092 O.2     1  UNL1       -0.2699
     10 C         139.0968  139.6404  161.6005 C.3     1  UNL1        0.1236
     11 C         138.8863  140.4148  169.9190 C.3     1  UNL1        0.0521
     12 C         140.0409  140.0971  169.0158 C.ar    1  UNL1        0.0609
     13 C         139.8412  140.0549  167.5298 C.ar    1  UNL1        0.0339
     14 C         140.9958  139.7373  166.6265 C.ar    1  UNL1        0.0855
     15 C         142.3502  139.4617  167.2092 C.ar    1  UNL1        0.0398
     16 C         142.5499  139.5039  168.6953 C.ar    1  UNL1        0.1000
     17 N         141.3953  139.8216  169.5986 N.ar    1  UNL1       -0.2480
     18 C         141.1681  139.4483  158.1664 C.ar    1  UNL1        0.0549
     19 C         141.6535  138.1168  157.6752 C.ar    1  UNL1        0.0229
     20 C         142.8402  138.0419  156.7606 C.ar    1  UNL1        0.1059
     21 C         143.5414  139.2984  156.3374 C.ar    1  UNL1        0.0183
     22 C         143.0561  140.6301  156.8287 C.ar    1  UNL1        0.0015
     23 C         141.8694  140.7050  157.7432 C.ar    1  UNL1        0.0045
     24 C         141.3840  142.0365  158.2344 C.ar    1  UNL1        0.0024
     25 C         140.2552  142.7296  157.5306 C.ar    1  UNL1        0.0001
     26 C         139.7698  144.0611  158.0219 C.ar    1  UNL1        0.0023
     27 C         140.4133  144.6996  159.2170 C.ar    1  UNL1        0.0296
     28 C         141.5421  144.0067  159.9209 C.ar    1  UNL1        0.1401
     29 F         142.1856  144.6451  161.1160 F       1  UNL1       -0.2042
     30 C         142.0275  142.6750  159.4296 C.ar    1  UNL1        0.0296
     31 S         143.3254  136.7102  156.2694 S.O2    1  UNL1        0.0105
     32 C         143.8106  135.3786  155.7783 C.3     1  UNL1        0.1816
     33 O         142.0837  136.0605  156.8042 O.2     1  UNL1       -0.1686
     34 O         144.5672  137.3599  155.7346 O.2     1  UNL1       -0.1686
@<TRIPOS>BOND
     1    11    12    1
     2    12    13   ar
     3    13    14   ar
     4    14     1    1
     5     1     2   ar
     6     2     3   ar
     7     3     4   ar
     8     4     5   ar
     9     4     6    1
    10     6     7    1
    11     7     8   am
    12     8     9    2
    13     8    18    1
    14    18    19   ar
    15    19    20   ar
    16    20    31    1
    17    31    32    1
    18    31    33    2
    19    31    34    2
    20    20    21   ar
    21    21    22   ar
    22    22    23   ar
    23    23    24    1
    24    24    25   ar
    25    25    26   ar
    26    26    27   ar
    27    27    28   ar
    28    28    29    1
    29    28    30   ar
    30     7    10    1
    31    14    15   ar
    32    15    16   ar
    33    16    17   ar
    34    17    12   ar
    35     5     1   ar
    36    23    18   ar
    37    30    24   ar
    38    10     3    1
@<TRIPOS>MOLECULE
*****
 34 38 0 0 0
SMALL
GASTEIGER

@<TRIPOS>ATOM
      1 N         141.2963  137.6439  157.7010 N.ar    1  UNL1       -0.2286
      2 C         139.8752  137.9750  158.0487 C.ar    1  UNL1        0.0990
      3 C         139.8824  138.7692  159.3211 C.ar    1  UNL1        0.0338
      4 C         141.3079  138.9290  159.7598 C.ar    1  UNL1        0.0981
      5 N         142.1817  138.2335  158.7585 N.ar    1  UNL1       -0.1680
      6 C         141.3150  139.7233  161.0322 C.3     1  UNL1        0.1414
      7 N         139.8939  140.0544  161.3800 N.am    1  UNL1       -0.2661
      8 C         139.4383  140.8376  162.5753 C.2     1  UNL1        0.2496
      9 O         137.9759  141.0909  162.7931 O.2     1  UNL1       -0.2699
     10 C         139.0085  139.4647  160.3224 C.3     1  UNL1        0.1236
     11 C         140.4696  135.9177  152.8702 C.3     1  UNL1        0.0521
     12 C         141.3386  135.9975  154.0901 C.ar    1  UNL1        0.0609
     13 C         140.8830  136.7807  155.2856 C.ar    1  UNL1        0.0339
     14 C         141.7520  136.8607  156.5056 C.ar    1  UNL1        0.0855
     15 C         143.0767  136.1574  156.5303 C.ar    1  UNL1        0.0398
     16 C         143.5323  135.3742  155.3348 C.ar    1  UNL1        0.1000
     17 N         142.6633  135.2942  154.1148 N.ar    1  UNL1       -0.2480
     18 C         140.4449  141.3676  163.5529 C.ar    1  UNL1        0.0549
     19 C         141.2780  142.5633  163.1976 C.ar    1  UNL1        0.0229
     20 C         142.2847  143.0933  164.1752 C.ar    1  UNL1        0.1059
     21 C         142.4583  142.4277  165.5081 C.ar    1  UNL1        0.0183
     22 C         141.6251  141.2320  165.8636 C.ar    1  UNL1        0.0015
     23 C         140.6185  140.7020  164.8859 C.ar    1  UNL1        0.0045
     24 C         139.7854  139.5064  165.2413 C.ar    1  UNL1        0.0024
     25 C         140.0070  138.2013  164.5358 C.ar    1  UNL1        0.0001
     26 C         139.1739  137.0057  164.8912 C.ar    1  UNL1        0.0023
     27 C         138.1191  137.1151  165.9521 C.ar    1  UNL1        0.0296
     28 C         137.8974  138.4200  166.6576 C.ar    1  UNL1        0.1401
     29 F         136.8426  138.5294  167.7185 F       1  UNL1       -0.2042
     30 C         138.7305  139.6157  166.3023 C.ar    1  UNL1        0.0296
     31 S         143.1178  144.2890  163.8197 S.O2    1  UNL1        0.0105
     32 C         143.9507  145.4847  163.4642 C.3     1  UNL1        0.1816
     33 O         141.8929  145.1541  163.8592 O.2     1  UNL1       -0.1686
     34 O         144.3426  143.4240  163.7802 O.2     1  UNL1       -0.1686
@<TRIPOS>BOND
     1    11    12    1
     2    12    13   ar
     3    13    14   ar
     4    14     1    1
     5     1     2   ar
     6     2     3   ar
     7     3     4   ar
     8     4     5   ar
     9     4     6    1
    10     6     7    1
    11     7     8   am
    12     8     9    2
    13     8    18    1
    14    18    19   ar
    15    19    20   ar
    16    20    31    1
    17    31    32    1
    18    31    33    2
    19    31    34    2
    20    20    21   ar
    21    21    22   ar
    22    22    23   ar
    23    23    24    1
    24    24    25   ar
    25    25    26   ar
    26    26    27   ar
    27    27    28   ar
    28    28    29    1
    29    28    30   ar
    30     7    10    1
    31    14    15   ar
    32    15    16   ar
    33    16    17   ar
    34    17    12   ar
    35     5     1   ar
    36    23    18   ar
    37    30    24   ar
    38    10     3    1
